1

   Abaqus 2023                                  Date 21-4月-2025   Time 23:46:05
   For use by Supplied by Team-SolidSQUAD under license from Dassault Systemes or its subsidiary.



                         The Abaqus Software is a product of:

                           Dassault Systemes SIMULIA Corp.
                           1301 Atwood Avenue, Suite 101W
                              Johnston, RI 02919, USA
 


                   The Abaqus Software is available only under license
                   from Dassault Systemes or its subsidiary and may be
                   used or reproduced only in accordance with the terms
                   of such license.
 
                          On machine eval 
                          you are authorized to run
                          Abaqus/Explicit until 31-Dec-2055

                          Your site id is:  


 
                    For assistance or any other information you may
                    obtain contact information for your local office
                    from the world wide web at:

                      http://www.3ds.com/products/simulia/locations/

 
                * * * * * * * * * * * * * * * * * * * * * * * * * * * * * * 
                *                                                         * 
                *                   *****************                     * 
                *                   *  N O T I C E  *                     * 
                *                   *****************                     * 
                *                                                         * 
                *                                                         * 
                *                       Abaqus 2023                       * 
                *                                                         * 
                *          BUILD ID: 2022_09_29-02.11.55 183150           * 
                *                                                         * 
                *                                                         * 
                *  Please make sure you are using                         * 
                *  release Abaqus 2023 manuals                            * 
                *  plus the notes accompanying this release.              * 
                *                                                         * 
                *                                                         * 
                *                                                         * 
                *                                                         * 
                * * * * * * * * * * * * * * * * * * * * * * * * * * * * * * 


 



     PROCESSING PART, INSTANCE, AND ASSEMBLY INFORMATION
   *******************************************************


     END PROCESSING PART, INSTANCE, AND ASSEMBLY INFORMATION
   ***********************************************************




     OPTIONS BEING PROCESSED
   ***************************


  *HEADING
          : NAFEMS TEST LE1, Plane Stress Elements -- Elliptic Membr.  [CPS3]                                                                                                                                                                                                                                                                                                                                                                                                                                                             
  *NODE, NSET=CF000
  *ELEMENT, TYPE=CPS3, ELSET=M001P001
  *ELSET,ELSET=LOAD
  *ELSET,ELSET=HIST
  *NSET, NSET=QA_TEST, GEN
  *MATERIAL, NAME=M001P001
  *ELASTIC, TYPE=ISO
  *DENSITY
  *SOLID SECTION, ELSET=M001P001, MATERIAL=M001P001
  *SOLID SECTION, ELSET=M001P001, MATERIAL=M001P001

 ***WARNING: FOR TWO-DIMENSIONAL MODELS, IF A NON-UNITY THICKNESS IS SPECIFIED 
             FOR TWO-DIMENSIONAL SOLID ELEMENTS AND THESE ELEMENTS ARE INVOLVED 
             IN AN INTERACTION SUCH AS CONTACT, THE SAME THICKNESS SHOULD BE 
             SPECIFIED FOR THE OUT-OF-PLANE THICKNESS OF THE CORRESPONDING 
             SURFACE UNDER *SURFACE INTERACTION.
  *BOUNDARY, OP=NEW
  *SOLID SECTION, ELSET=M001P001, MATERIAL=M001P001
  *OUTPUT,FIELD,VAR=PRESELECT,NUMBER INTERVAL=5
  *OUTPUT,FIELD,NUMBER INTERVAL=1
  *OUTPUT,HISTORY,VAR=PRESELECT,TIME INTERVAL=0.025
  *STEP
  *STEP
  *DYNAMIC,EXPLICIT
  *DLOAD,AMP=RAMP
  *BOUNDARY, OP=NEW
  *OUTPUT,FIELD,VAR=PRESELECT,NUMBER INTERVAL=5

 ***WARNING: THIS OPTION WILL NOT BE STEP-DEPENDENT.
 LINE IMAGE: *NSET, NSET=QA_TEST, GEN
  *OUTPUT,FIELD,NUMBER INTERVAL=1
  *NODE OUTPUT, NSET=QA_TEST
  *OUTPUT,HISTORY,VAR=PRESELECT,TIME INTERVAL=0.025
  *FILE OUTPUT,NUM=1
  *NODE FILE, NSET=QA_TEST
  *ENERGY FILE
  *END STEP
  *STEP
  *DYNAMIC,EXPLICIT
  *BOUNDARY, OP=NEW

 ***WARNING: THE OPTION *BOUNDARY,TYPE=DISPLACEMENT HAS BEEN USED; CHECK STATUS 
             FILE BETWEEN STEPS FOR WARNINGS ON ANY JUMPS PRESCRIBED ACROSS THE 
             STEPS IN DISPLACEMENT VALUES OF TRANSLATIONAL DOF. FOR ROTATIONAL 
             DOF MAKE SURE THAT THERE ARE NO SUCH JUMPS. ALL JUMPS IN 
             DISPLACEMENTS ACROSS STEPS ARE IGNORED
  *END STEP



                            P R O B L E M   S I Z E


          NUMBER OF ELEMENTS IS                                    12
          NUMBER OF NODES IS                                       12
          NUMBER OF NODES DEFINED BY THE USER                      12
          TOTAL NUMBER OF VARIABLES IN THE MODEL                   24
          (DEGREES OF FREEDOM PLUS MAX NO. OF ANY LAGRANGE MULTIPLIER
           VARIABLES. INCLUDE *PRINT,SOLVE=YES TO GET THE ACTUAL NUMBER.)



                              END OF USER INPUT PROCESSING



     JOB TIME SUMMARY
       USER TIME (SEC)      =      0.0    
       SYSTEM TIME (SEC)    =      0.0    
       TOTAL CPU TIME (SEC) =      0.0    
       WALLCLOCK TIME (SEC) =            0
