*HEADING
le1_cps3r_vf: NAFEMS TEST LE1, Plane Stress Elements -- Elliptic Membr.  [CPS3]
*RESTART,TIMEMARKS=YES,WRITE,NUM=1
**************************************
*NODE
       1,          0.,          1.
       2,    0.146187,    0.988513
       3,    0.289202,    0.976231
       4,    0.429009,    0.962196
       5,    0.565558,    0.945705
       6,     0.69877,    0.926179
       7,    0.828525,    0.903094
       8,    0.954641,     0.87594
       9,     1.07687,    0.844201
      10,     1.19485,     0.80734
      11,     1.30813,     0.76481
      12,     1.41607,    0.716065
      13,     1.51787,    0.660611
      14,     1.61256,    0.598082
      15,     1.69901,    0.528352
      16,     1.77606,     0.45166
      17,      1.8427,    0.368696
      18,     1.89827,    0.280595
      19,     1.94266,    0.188791
      20,     1.97628,   0.0948001
** ... 421 like lines cut
*NSET,GENERATE,NSET=XSYM
1,421,21
*NSET,GENERATE,NSET=YSYM
21,441,21
**
**
*ELEMENT, TYPE=CPS3,ELSET=EALL
       1,      23,      22,       1
       2,       1,       2,      23
       3,       2,       3,      23
       4,      24,      23,       3
       5,       3,       4,      24
       6,      25,      24,       4
       7,       4,       5,      25
       8,      26,      25,       5
       9,       5,       6,      26
      10,      27,      26,       6
      11,       6,       7,      27
      12,      28,      27,       7
      13,       7,       8,      28
      14,      29,      28,       8
      15,       8,       9,      29
      16,      30,      29,       9
      17,       9,      10,      30
      18,      31,      30,      10
      19,      10,      11,      31
      20,      32,      31,      11
** ... 780 like lines cut
*ELSET,ELSET=HIST
40, 
***************************************
*SOLID SECTION,MATERIAL=MATPROP, ELSET=EALL
 0.1, 
*MATERIAL,NAME=MATPROP
*ELASTIC
210.0E9,0.3
*DENSITY
7800., 
***************************************
*BOUNDARY
 XSYM,1,,0.0
 YSYM,2,,0.0
***************************************
*AMPLITUDE,NAME=RAMP
0.0,0.0,0.1,1.0
***************************************
*STEP
*DYNAMIC,EXPLICIT
,0.1
*DLOAD,AMP=RAMP
     762, P1,      -1.E+7
     763, P1,      -1.E+7
     765, P1,      -1.E+7
     767, P1,      -1.E+7
     770, P1,      -1.E+7
     772, P1,      -1.E+7
     774, P1,      -1.E+7
     776, P1,      -1.E+7
     778, P1,      -1.E+7
     780, P1,      -1.E+7
     782, P1,      -1.E+7
     784, P1,      -1.E+7
     786, P1,      -1.E+7
     788, P1,      -1.E+7
     790, P1,      -1.E+7
     792, P1,      -1.E+7
     794, P1,      -1.E+7
     796, P1,      -1.E+7
     798, P1,      -1.E+7
     800, P1,      -1.E+7
***OUTPUT,HISTORY,TIME INTERVAL=1.0E-4
***ELEMENT OUTPUT,ELSET=HIST
**S,
***ENERGY OUTPUT
**ALLKE,ALLIE,ALLSE,ALLAE,ALLVD,ALLCD,ALLPD,ALLFD,ALLWK,ETOTAL,DT
*OUTPUT,FIELD,VAR=PRESELECT,NUMBER INTERVAL=5
**
** Output requests for qa testing
**
*NSET, NSET=QA_TEST, GEN
421, 441, 1
*OUTPUT,FIELD,NUMBER INTERVAL=1
*NODE OUTPUT, NSET=QA_TEST
U,
*OUTPUT,HISTORY,VAR=PRESELECT,TIME INTERVAL=0.025
*FILE OUTPUT,NUM=1
*NODE FILE, NSET=QA_TEST
U, 
*ENERGY FILE
*END STEP
