*HEADING
le1_cps6m_f: NAFEMS TEST LE1, Plane Stress Elements -- Elliptic Membr.
[CPS6M]
*RESTART,WRITE
*NODE
   1,   0.00000E+00, 1.0000,    0.00000E+00
 117,   0.29000    ,0.98943,    0.00000E+00
 234,   0.58250    ,0.95665,    0.00000E+00
 352,   0.87750    ,0.89861,    0.00000E+00
 467,    1.1650    ,0.81283,    0.00000E+00
 532,    1.3275    ,0.74795,    0.00000E+00
 591,    1.4750    ,0.67535,    0.00000E+00
 660,    1.6475    ,0.56695,    0.00000E+00
 714,    1.7825    ,0.45351,    0.00000E+00
 764,    1.9075    ,0.30060,    0.00000E+00
 788,    1.9675    ,0.17954,    0.00000E+00
 798,    1.9925    ,8.65216E-02,0.00000E+00
 801,    2.0000    ,0.00000E+00,0.00000E+00
1001,   0.00000E+00, 1.1457,    0.00000E+00
1117,   0.30512    , 1.1336,    0.00000E+00
1234,   0.61286    , 1.0961,    0.00000E+00
1352,   0.92325    , 1.0296,    0.00000E+00
1467,    1.2257    ,0.93130,    0.00000E+00
1532,    1.3967    ,0.85696,    0.00000E+00
1591,    1.5519    ,0.77379,    0.00000E+00
** ... 97 like lines cut
*NSET,NSET=XSYM,GEN
 1,8001,1000
*NSET,NSET=YSYM,GEN
 801,8801,1000
*ELEMENT,TYPE=CPS6M, ELSET=EALL
 1,   1, 2234, 2001, 1117, 2117, 1001
 2,   1,  234, 2234,  117, 1234, 1117
 3, 234, 2467, 2234, 1352, 2352, 1234
 4, 234,  467, 2467,  352, 1467, 1352
 5, 467, 2591, 2467, 1532, 2532, 1467
 6, 467,  591, 2591,  532, 1591, 1532
 7, 591, 2714, 2591, 1660, 2660, 1591
 8, 591,  714, 2714,  660, 1714, 1660
 9, 714, 2788, 2714, 1764, 2764, 1714
10, 714,  788, 2788,  764, 1788, 1764
11, 788, 2801, 2788, 1798, 2798, 1788
12, 788,  801, 2801,  798, 1801, 1798
*ELGEN, ELSET=EALL
 1, 4, 2000,100
 2, 4, 2000,100
 3, 4, 2000,100
 4, 4, 2000,100
 5, 4, 2000,100
 6, 4, 2000,100
 7, 4, 2000,100
 8, 4, 2000,100
 9, 4, 2000,100
10, 4, 2000,100
11, 4, 2000,100
12, 4, 2000,100
*MATERIAL,NAME=MATPROP
*ELASTIC
 210.0E9,0.3
*DENSITY
7800., 
*AMPLITUDE,NAME=RAMP
0.0,0.0,0.10,1.0
*ELSET,ELSET=LOAD,GEN
 301,311,2
*SECTION CONTROL, NAME=RATE
*SOLID SECTION,MATERIAL=MATPROP, ELSET=EALL,CONTROL=RATE
 0.1, 
*BOUNDARY
 XSYM,XSYMM
 YSYM,YSYMM
*ELSET,ELSET=OUT,GEN
 11,311,100
 12,312,100
*ELSET,ELSET=HIST
 11,12
*STEP
*DYNAMIC,EXPLICIT
,0.10
*DLOAD,AMP=RAMP
 LOAD,P2, -10.0E6
***OUTPUT,HISTORY,TIME INTERVAL=1.0E-4
***ELEMENT OUTPUT,ELSET=HIST
**S,
***ENERGY OUTPUT
**ALLKE,ALLIE,ALLSE,ALLAE,ALLVD,ALLCD,ALLPD,ALLFD,ALLWK,ETOTAL,DT
*OUTPUT,FIELD,VAR=PRESELECT,NUMBER INTERVAL=5
**
** Output requests for qa testing
**
*NSET, NSET=QA_TEST
8001, 8117, 8234, 8352, 8467, 8532, 8591 
8660, 8714, 8764, 8788, 8798, 8801
*OUTPUT,FIELD,NUMBER INTERVAL=1
*NODE OUTPUT, NSET=QA_TEST
U,
*OUTPUT,HISTORY,VAR=PRESELECT,TIME INTERVAL=0.025
*FILE OUTPUT,NUM=1
*NODE FILE, NSET=QA_TEST
U, 
*ENERGY FILE
*END STEP
