*HEADING
: NAFEMS TEST LE1, Plane Stress Elements -- Elliptic Membr.  [CPS8]
*NODE,NSET=EL1
   1,   0.00000E+00, 1.0000    , 0.00000E+00
 117,   0.29000    ,0.98943    , 0.00000E+00
 234,   0.58250    ,0.95665    , 0.00000E+00
 352,   0.87750    ,0.89861    , 0.00000E+00
 467,    1.1650    ,0.81283    , 0.00000E+00
 532,    1.3275    ,0.74795    , 0.00000E+00
 591,    1.4750    ,0.67535    , 0.00000E+00
 660,    1.6475    ,0.56695    , 0.00000E+00
 714,    1.7825    ,0.45351    , 0.00000E+00
 764,    1.9075    ,0.30060    , 0.00000E+00
 788,    1.9675    ,0.17954    , 0.00000E+00
 798,    1.9925    ,8.65216E-02, 0.00000E+00
 801,    2.0000    ,0.00000E+00, 0.00000E+00
1001,   0.00000E+00, 1.1457    , 0.00000E+00
1234,   0.61286    , 1.0961    , 0.00000E+00
1467,    1.2257    ,0.93130    , 0.00000E+00
1591,    1.5519    ,0.77379    , 0.00000E+00
1714,    1.8754    ,0.51961    , 0.00000E+00
1788,    2.0701    ,0.20571    , 0.00000E+00
1801,    2.1043    ,0.00000E+00, 0.00000E+00
** ... 73 like lines cut
*NSET,NSET=XSYM,GEN
 1,8001,1000
*NSET,NSET=YSYM,GEN
 801,8801,1000
*ELEMENT,TYPE=CPS8, ELSET=EALL
 1, 1,234, 2234, 2001, 117, 1234, 2117,1001
 2, 234, 467,2467,2234,352,1467,2352, 1234
 3, 467, 591,2591,2467, 532, 1591,2532,1467
 4, 591, 714,2714, 2591,660, 1714, 2660,1591
 5, 714, 788, 2788,2714, 764, 1788, 2764, 1714
 6, 788, 801, 2801, 2788,798, 1801, 2798, 1788
*ELGEN, ELSET=EALL
 1, 4, 2000,10
 2, 4, 2000,10
 3, 4, 2000,10
 4, 4, 2000,10
 5, 4, 2000,10
 6, 4, 2000,10
*MATERIAL,NAME=MATPROP
*ELASTIC
 210.0E9,0.3
*ELSET,ELSET=LOAD,GEN
 31,36
*SOLID SECTION,MATERIAL=MATPROP, ELSET=EALL
 0.1, 
*BOUNDARY
 XSYM,XSYMM
 YSYM,YSYMM
*ELSET,ELSET=OUT
 3,13
*ELSET,ELSET=PRINT
 6, 
*STEP
*STATIC
*DLOAD
 LOAD,P3, -10.0E6
*NODE PRINT,FREQ=0
*EL PRINT,ELSET=PRINT, POSITION=AVERAGED AT NODES
 S, 
*EL FILE,ELSET=PRINT, POSITION=AVERAGED AT NODES
 S, 
*END STEP
