*HEADING
: NAFEMS TEST LE10: THICK PLATE - PRESSURE
FINE MESH, C3D20 ELEMENTS
*NODE,NSET=LAY1
   1,   0.00000E+00, 1.0000    , 0.00000E+00
   2,   0.29000    ,0.98943    , 0.00000E+00
   3,   0.58250    ,0.95665    , 0.00000E+00
   4,   0.87750    ,0.89861    , 0.00000E+00
   5,    1.1650    ,0.81283    , 0.00000E+00
   6,    1.3275    ,0.74795    , 0.00000E+00
   7,    1.4750    ,0.67535    , 0.00000E+00
   8,    1.6475    ,0.56695    , 0.00000E+00
   9,    1.7825    ,0.45351    , 0.00000E+00
  10,    1.9075    ,0.30060    , 0.00000E+00
  11,    1.9675    ,0.17954    , 0.00000E+00
  12,    1.9925    ,8.65216E-02, 0.00000E+00
  13,    2.0000    ,0.00000E+00, 0.00000E+00
 101,   0.00000E+00, 1.1457    , 0.00000E+00
 103,   0.61286    , 1.0961    , 0.00000E+00
 105,    1.2257    ,0.93130    , 0.00000E+00
 107,    1.5519    ,0.77379    , 0.00000E+00
 109,    1.8754    ,0.51961    , 0.00000E+00
 111,    2.0701    ,0.20571    , 0.00000E+00
 113,    2.1043    ,0.00000E+00, 0.00000E+00
** ... 73 like lines cut
*NCOPY,SHIFT,OLDSET=LAY1,NEWSET=LAY2,CHANGE NUMBER=1000
0.,0.,0.15

*NCOPY,SHIFT,OLDSET=LAY2,NEWSET=LAY3,CHANGE NUMBER=1000
0.,0.,0.15

*NCOPY,SHIFT,OLDSET=LAY3,NEWSET=LAY4,CHANGE NUMBER=1000
0.,0.,0.15

*NCOPY,SHIFT,OLDSET=LAY4,NEWSET=LAY5,CHANGE NUMBER=1000
0.,0.,0.15

*NSET,NSET=AB,GEN
    1, 801,100
 1001,1801,100
 2001,2801,100
 3001,3801,100
 4001,4801,100
*NSET,NSET=DC,GEN
   13, 813,100
 1013,1813,100
 2013,2813,100
 3013,3813,100
 4013,4813,100
*NSET,NSET=BC,GEN
  801, 813,1
 1801,1813,1
 2801,2813,1
 3801,3813,1
 4801,4813,1
*NSET,NSET=MID,GEN
 2801,2813,1
*ELEMENT,TYPE=C3D20
1, 1,3,203,201,2001,2003,2203,2201,2,103,202,101,2002,2103,2202,
2101,1001,1003,1203,1201
*ELGEN,ELSET=ALLE
1, 6,2,1, 4,200,10, 2,2000,100
*MATERIAL,NAME=MATPROP
*ELASTIC
 210.0E9,0.3
*ELSET,ELSET=LOAD,GEN
 101,136,1
*ELSET,ELSET=EOUT
 106, 
*SOLID SECTION,ELSET=ALLE,MATERIAL=MATPROP
*BOUNDARY
AB,1
DC,2
BC,1,2
MID,3
*STEP,PERT
*STATIC
*DLOAD
 LOAD,P2,  1.0E6
*NODE PRINT,FREQ=0
*EL PRINT,POSITION=AVERAGED AT NODES,ELSET=EOUT
S, 
*EL FILE,POSITION=AVERAGED AT NODES,ELSET=EOUT
S, 
*END STEP
