*HEADING
  NAFEMS TEST LE3, Hemispherical Shell with Point Loads  [SC8R]
*NODE
 8,   9.980000    ,  0.0000000E+00,  0.0000000E+00
 9,   9.220323    ,   3.819146    ,  0.0000000E+00
 10,   7.056958    ,   7.056958    ,  0.0000000E+00
 11,   9.220323    ,  0.0000000E+00,   3.819146    
 12,   8.586593    ,   3.556673    ,   3.636113    
 13,   6.725422    ,   6.725422    ,   3.023042    
 14,   7.056958    ,  0.0000000E+00,   7.056958    
 15,   6.772428    ,   2.805178    ,   6.772428    
 16,   5.761953    ,   5.761953    ,   5.761953    
 17,   3.819146    ,   9.220323    ,  0.0000000E+00
 18,  0.0000000E+00,   9.980000    ,  0.0000000E+00
 19,   3.556673    ,   8.586593    ,   3.636113    
 20,  0.0000000E+00,   9.220323    ,   3.819146    
 21,   2.805278    ,   6.772428    ,   6.772428    
 22,  0.0000000E+00,   7.056958    ,   7.056958    
 23,   3.819146    ,  0.0000000E+00,   9.220323    
 24,   3.556673    ,   3.636113    ,   8.586593    
 25,  0.0000000E+00,  0.0000000E+00,   9.980000    
 26,  0.0000000E+00,   3.819146    ,   9.220323    
 64,   9.980000    ,  0.0000000E+00,  0.0000000E+00
** ... 140 like lines cut
*ELEMENT,TYPE=SC8R     ,ELSET=S4_P2
 1000,     8,     9,    12,    11, 1008,  1009,  1012,  1011
 1001,     9,    10,    13,    12, 1009,  1010,  1013,  1012
 1002,    10,    17,    19,    13, 1010,  1017,  1019,  1013
 1003,    17,    18,    20,    19, 1017,  1018,  1020,  1019
 1004,    11,    12,    15,    14, 1011,  1012,  1015,  1014
 1005,    12,    13,    16,    15, 1012,  1013,  1016,  1015
 1006,    13,    19,    21,    16, 1013,  1019,  1021,  1016
 1007,    19,    20,    22,    21, 1019,  1020,  1022,  1021
 1008,    15,    16,    21,    24, 1015,  1016,  1021,  1024
 1009,    14,    15,    24,    23, 1014,  1015,  1024,  1023
 1010,    21,    22,    26,    24, 1021,  1022,  1026,  1024
 1011,    23,    24,    26,    25, 1023,  1024,  1026,  1025
*ELEMENT,TYPE=SC8R     ,ELSET=S4_P4
 3000,    64,    65,    70,    69, 1064,  1065,  1070,  1069
 3001,    65,    66,    71,    70, 1065,  1066,  1071,  1070
 3002,    66,    67,    72,    71, 1066,  1067,  1072,  1071
 3003,    67,    68,    73,    72, 1067,  1068,  1073,  1072
 3004,    68,    89,    93,    73, 1068,  1089,  1093,  1073
 3005,    89,    90,    94,    93, 1089,  1090,  1094,  1093
 3006,    90,    91,    95,    94, 1090,  1091,  1095,  1094
 3007,    91,    92,    96,    95, 1091,  1092,  1096,  1095
 3008,    69,    70,    75,    74, 1069,  1070,  1075,  1074
 3009,    70,    71,    76,    75, 1070,  1071,  1076,  1075
 3010,    71,    72,    77,    76, 1071,  1072,  1077,  1076
 3011,    72,    73,    78,    77, 1072,  1073,  1078,  1077
 3012,    73,    93,    97,    78, 1073,  1093,  1097,  1078
 3013,    93,    94,    98,    97, 1093,  1094,  1098,  1097
 3014,    94,    95,    99,    98, 1094,  1095,  1099,  1098
 3015,    95,    96,   100,    99, 1095,  1096,  1100,  1099
 3016,    74,    75,    80,    79, 1074,  1075,  1080,  1079
 3017,    75,    76,    81,    80, 1075,  1076,  1081,  1080
 3018,    76,    77,    82,    81, 1076,  1077,  1082,  1081
 3019,    77,    78,    83,    82, 1077,  1078,  1083,  1082
** ... 28 like lines cut
*ELSET,ELSET=EALL
 S4_P2,S4_P4
*MATERIAL,NAME=A1
*ELASTIC,TYPE=ISO
 6.825E+07,     0.3000,     0.0000
*DENSITY
 7800., 
*DAMPING,ALPHA=.1
***SECTION CONTROLS, NAME=HGLASS, HOURGLASS=ENHANCED
***SHELL SECTION,MATERIAL=A1,ELSET=S4_P2, CONTROLS=HGLASS,SECTION=GAUSS
*SHELL SECTION,MATERIAL=A1,ELSET=S4_P2, SECTION=GAUSS
 4.000E-02, 
***SHELL SECTION,MATERIAL=A1,ELSET=S4_P4, CONTROLS=HGLASS
*SHELL SECTION,MATERIAL=A1,ELSET=S4_P4
 4.000E-02, 
*NSET,NSET=ZCONSTR
 121,25,1121,1025
*NSET,NSET=XSYM
 18,20,22,25,26,92,96,100,104,108,121,122,123,124
 1018,1020,1022,1025,1026,1092,1096,1100,1104,1108,1121,1122,1123,1124
*NSET,NSET=YSYM
 8,11,14,23,25,64,69,74,79,84,109,113,117,121
 1008,1011,1014,1023,1025,1064,1069,1074,1079,1084,1109,1113,1117,1121
*NSET,NSET=DISPSET_FINE
 64,1064
*NSET,NSET=DISPSET_COARSE
 8,1008
*NSET,NSET=DISPSET
 DISPSET_FINE,DISPSET_COARSE
*BOUNDARY,OP=NEW
 XSYM,XSYMM
 YSYM,YSYMM
 ZCONSTR,3,3
*AMPLITUDE,NAME=RAMP,DEFINITION = SMOOTH STEP
0.0,0.0,100.,1.0
*NSET,NSET=QA_TEST
DISPSET,
*STEP
*DYNAMIC,EXPLICIT
,300.
*CLOAD,OP=NEW,AMP=RAMP
    8,     1,  1.000E+00
 1008,     1,  1.000E+00
   18,     2, -1.000E+00
 1018,     2, -1.000E+00
   64,     1,  1.000E+00
 1064,     1,  1.000E+00
   92,     2, -1.000E+00
 1092,     2, -1.000E+00
*FILE OUTPUT, NUMBER INTERVAL=4
*NODE FILE, NSET=QA_TEST
 U,
*OUTPUT,FIELD,NUMBER=4
*NODE OUTPUT
U,
*NODE OUTPUT,NSET=QA_TEST
U
*OUTPUT,HISTORY,FREQ=1
*NODE OUTPUT,NSET=DISPSET
U
*ENERGY OUTPUT
 ALLAE,ALLIE,ALLKE,ALLPD,ALLSE,ALLVD,ALLWK,ETOTAL
*END STEP
