*HEADING
: NAFEMS TEST LE3, Hemispherical Shell with Point Loads  [S8R]
*ELEMENT,TYPE=S8R     ,ELSET=S8_P2
 2001, 20001, 20003, 20203, 20201, 20002, 20103, 20202, 20101
 2002, 20003, 20005, 20205, 20203, 20004, 20105, 20204, 20103
 2003, 20005, 20007, 20207, 20205, 20006, 20107, 20206, 20105
 2004, 20007, 20009, 20209, 20207, 20008, 20109, 20208, 20107
 2005, 20201, 20203, 20403, 20401, 20202, 20303, 20402, 20301
 2006, 20203, 20205, 20405, 20403, 20204, 20305, 20404, 20303
 2007, 20205, 20207, 20407, 20405, 20206, 20307, 20406, 20305
 2008, 20207, 20209, 20409, 20407, 20208, 20309, 20408, 20307
 2009, 20403, 20405, 20407, 20603, 20404, 20406, 20604, 20503
 2010, 20401, 20403, 20603, 20601, 20402, 20503, 20602, 20501
 2011, 20603, 20407, 20409, 20803, 20604, 20408, 20804, 20703
 2012, 20601, 20603, 20803, 20801, 20602, 20703, 20802, 20701
*ELEMENT,TYPE=S8R     ,ELSET=S8_P4
 4001, 40001, 40003, 40203, 40201, 40002, 40103, 40202, 40101
 4002, 40003, 40005, 40205, 40203, 40004, 40105, 40204, 40103
 4003, 40005, 40007, 40207, 40205, 40006, 40107, 40206, 40105
 4004, 40007, 40009, 40209, 40207, 40008, 40109, 40208, 40107
 4005, 40009, 40011, 40211, 40209, 40010, 40111, 40210, 40109
 4006, 40011, 40013, 40213, 40211, 40012, 40113, 40212, 40111
 4007, 40013, 40015, 40215, 40213, 40014, 40115, 40214, 40113
 4008, 40015, 40017, 40217, 40215, 40016, 40117, 40216, 40115
 4009, 40201, 40203, 40403, 40401, 40202, 40303, 40402, 40301
 4010, 40203, 40205, 40405, 40403, 40204, 40305, 40404, 40303
 4011, 40205, 40207, 40407, 40405, 40206, 40307, 40406, 40305
 4012, 40207, 40209, 40409, 40407, 40208, 40309, 40408, 40307
 4013, 40209, 40211, 40411, 40409, 40210, 40311, 40410, 40309
 4014, 40211, 40213, 40413, 40411, 40212, 40313, 40412, 40311
 4015, 40213, 40215, 40415, 40413, 40214, 40315, 40414, 40313
 4016, 40215, 40217, 40417, 40415, 40216, 40317, 40416, 40315
 4017, 40401, 40403, 40603, 40601, 40402, 40503, 40602, 40501
 4018, 40403, 40405, 40605, 40603, 40404, 40505, 40604, 40503
 4019, 40405, 40407, 40607, 40605, 40406, 40507, 40606, 40505
 4020, 40407, 40409, 40609, 40607, 40408, 40509, 40608, 40507
** ... 28 like lines cut
*NODE,NSET=DISPSET
20001,    10.0000,     0.0000,     0.0000,     1.0000,     0.0000,     0.0000
20009,     0.0000,    10.0000,     0.0000,     0.0000,     1.0000,     0.0000
40001,    10.0000,     0.0000,     0.0000,     1.0000,     0.0000,     0.0000
40017,     0.0000,    10.0000,     0.0000,     0.0000,     1.0000,     0.0000
*NODE,NSET=GENSET
20002,     9.8079,     1.9509,     0.0000,     0.9808,     0.1951,     0.0000
20003,     9.2388,     3.8268,     0.0000,     0.9239,     0.3827,     0.0000
20004,     8.3147,     5.5557,     0.0000,     0.8315,     0.5556,     0.0000
20005,     7.0711,     7.0711,     0.0000,     0.7071,     0.7071,     0.0000
20101,     9.8079,     0.0000,     1.9509,     0.9808,     0.0000,     0.1951
20103,     9.0787,     3.7605,     1.8538,     0.9079,     0.3760,     0.1854
20105,     6.9875,     6.9875,     1.5326,     0.6988,     0.6988,     0.1533
20201,     9.2388,     0.0000,     3.8268,     0.9239,     0.0000,     0.3827
20202,     9.0794,     1.8060,     3.7820,     0.9079,     0.1806,     0.3782
20203,     8.6038,     3.5638,     3.6434,     0.8604,     0.3564,     0.3643
20204,     7.8196,     5.2249,     3.3991,     0.7820,     0.5225,     0.3399
20205,     6.7389,     6.7389,     3.0291,     0.6739,     0.6739,     0.3029
20301,     8.3147,     0.0000,     5.5557,     0.8315,     0.0000,     0.5556
20303,     7.8306,     3.2435,     5.3067,     0.7831,     0.3244,     0.5307
20305,     6.3310,     6.3310,     4.4539,     0.6331,     0.6331,     0.4454
20401,     7.0711,     0.0000,     7.0711,     0.7071,     0.0000,     0.7071
20402,     7.0021,     1.3928,     7.0021,     0.7002,     0.1393,     0.7002
20403,     6.7860,     2.8108,     6.7860,     0.6786,     0.2811,     0.6786
20404,     6.3934,     4.2719,     6.3934,     0.6393,     0.4272,     0.6393
20405,     5.7735,     5.7735,     5.7735,     0.5774,     0.5774,     0.5774
** ... 194 like lines cut
*ELSET,ELSET=EALL
S8_P2,S8_P4
*MATERIAL,NAME=A1
*ELASTIC,TYPE=ISO
 6.825E+07,     0.3000,     0.0000
**GENERAL RIGID ELEMENTS
*SHELL SECTION,MATERIAL=A1,ELSET=EALL
 4.000E-02, 
*NSET,NSET=XSYM,GEN
 20009,20409,100
 20801,20804,1
 40017,40817,100
 41601,41608,1
*NSET,NSET=YSYM,GEN
 20001,20801,100
 40001,41601,100
*BOUNDARY,OP=NEW
 XSYM,XSYMM
 YSYM,YSYMM
 20801,3,3
 41601,3,3
*STEP
*STATIC
*CLOAD,OP=NEW
20001,     1,  2.000E+00
20009,     2, -2.000E+00
40001,     1,  2.000E+00
40017,     2, -2.000E+00
*NODE PRINT,NSET=DISPSET
 U, 
 COORD,
*NODE FILE,NSET=DISPSET
 U, 
 COORD,
*OUTPUT,FIELD
*NODE OUTPUT,NSET=DISPSET
U,
COORD,
*EL PRINT,FREQUENCY=0
*END STEP
