*HEADING
 NAFEMS TEST LE3, Hemispherical Shell with Point Loads  [SC6R]
*NODE
 8,   9.980000    ,  0.0000000E+00,  0.0000000E+00
 9,   9.220323    ,   3.819146    ,  0.0000000E+00
 10,   7.056958    ,   7.056958    ,  0.0000000E+00
 11,   9.220323    ,  0.0000000E+00,   3.819146    
 12,   8.586593    ,   3.556673    ,   3.636113    
 13,   6.725422    ,   6.725422    ,   3.023042    
 14,   7.056958    ,  0.0000000E+00,   7.056958    
 15,   6.772428    ,   2.805178    ,   6.772428    
 16,   5.761953    ,   5.761953    ,   5.761953    
 17,   3.819146    ,   9.220323    ,  0.0000000E+00
 18,  0.0000000E+00,   9.980000    ,  0.0000000E+00
 19,   3.556673    ,   8.586593    ,   3.636113    
 20,  0.0000000E+00,   9.220323    ,   3.819146    
 21,   2.805278    ,   6.772428    ,   6.772428    
 22,  0.0000000E+00,   7.056958    ,   7.056958    
 23,   3.819146    ,  0.0000000E+00,   9.220323    
 24,   3.556673    ,   3.636113    ,   8.586593    
 25,  0.0000000E+00,  0.0000000E+00,   9.980000    
 26,  0.0000000E+00,   3.819146    ,   9.220323    
 64,   9.980000    ,  0.0000000E+00,  0.0000000E+00
** ... 140 like lines cut
*ELEMENT,TYPE=SC6R     ,ELSET=S4_P2
 1000,     8,     9,    11,  1008,  1009,  1011
 1001,    12,    11,     9,  1012,  1011,  1009
 1002,     9,    10,    12,  1009,  1010,  1012
 1003,    13,    12,    10,  1013,  1012,  1010
 1004,    10,    17,    13,  1010,  1017,  1013
 1005,    19,    13,    17,  1019,  1013,  1017
 1006,    17,    18,    19,  1017,  1018,  1019
 1007,    20,    19,    18,  1020,  1019,  1018
 1008,    11,    12,    14,  1011,  1012,  1014
 1009,    15,    14,    12,  1015,  1014,  1012
 1010,    12,    13,    15,  1012,  1013,  1015
 1011,    16,    15,    13,  1016,  1015,  1013
 1012,    13,    19,    16,  1013,  1019,  1016
 1013,    21,    16,    19,  1021,  1016,  1019
 1014,    19,    20,    21,  1019,  1020,  1021
 1015,    22,    21,    20,  1022,  1021,  1020
 1016,    15,    16,    24,  1015,  1016,  1024
 1017,    21,    24,    16,  1021,  1024,  1016
 1018,    14,    15,    23,  1014,  1015,  1023
 1019,    24,    23,    15,  1024,  1023,  1015
** ... 4 like lines cut
*ELEMENT,TYPE=SC6R     ,ELSET=S4_P4
 3000,    64,    65,    69,  1064,  1065,  1069
 3001,    70,    69,    65,  1070,  1069,  1065
 3002,    65,    66,    70,  1065,  1066,  1070
 3003,    71,    70,    66,  1071,  1070,  1066
 3004,    66,    67,    71,  1066,  1067,  1071
 3005,    72,    71,    67,  1072,  1071,  1067
 3006,    67,    68,    72,  1067,  1068,  1072
 3007,    73,    72,    68,  1073,  1072,  1068
 3008,    68,    89,    73,  1068,  1089,  1073
 3009,    93,    73,    89,  1093,  1073,  1089
 3010,    89,    90,    93,  1089,  1090,  1093
 3011,    94,    93,    90,  1094,  1093,  1090
 3012,    90,    91,    94,  1090,  1091,  1094
 3013,    95,    94,    91,  1095,  1094,  1091
 3014,    91,    92,    95,  1091,  1092,  1095
 3015,    96,    95,    92,  1096,  1095,  1092
 3016,    69,    70,    74,  1069,  1070,  1074
 3017,    75,    74,    70,  1075,  1074,  1070
 3018,    70,    71,    75,  1070,  1071,  1075
 3019,    76,    75,    71,  1076,  1075,  1071
** ... 76 like lines cut
*ELSET,ELSET=EALL
 S4_P2,S4_P4
*MATERIAL,NAME=A1
*ELASTIC,TYPE=ISO
 6.825E+07,     0.3000,     0.0000
*SHELL SECTION,MATERIAL=A1,ELSET=EALL, POISSON=ELASTIC
 4.000E-02, 
*NSET,NSET=ZCONSTR
 121,25,1121,1025
*NSET,NSET=XSYM
 18,20,22,25,26,92,96,100,104,108,121,122,123,124
 1018,1020,1022,1025,1026,1092,1096,1100,1104,1108,1121,1122,1123,1124
*NSET,NSET=YSYM
 8,11,14,23,25,64,69,74,79,84,109,113,117,121
 1008,1011,1014,1023,1025,1064,1069,1074,1079,1084,1109,1113,1117,1121
*NSET,NSET=DISPSET_FINE
 64,1064
*NSET,NSET=DISPSET_COARSE
 8,1008
*NSET,NSET=DISPSET
 DISPSET_FINE,DISPSET_COARSE
*BOUNDARY,OP=NEW
 XSYM,XSYMM
 YSYM,YSYMM
 ZCONSTR,3,3
*RESTART,WRITE
*STEP
*STATIC
*CLOAD,OP=NEW
    8,     1,  1.000E+00
 1008,     1,  1.000E+00
   18,     2, -1.000E+00
 1018,     2, -1.000E+00
   64,     1,  1.000E+00
 1064,     1,  1.000E+00
   92,     2, -1.000E+00
 1092,     2, -1.000E+00
*NODE PRINT,NSET=DISPSET_FINE
 U, 
*NODE PRINT,NSET=DISPSET_COARSE
 U, 
*NODE FILE,NSET=DISPSET
 U, 
*OUTPUT,FIELD
*NODE OUTPUT
 U,
*ELEMENT OUTPUT
 S,
*END STEP
