*HEADING
  NAFEMS TEST LE3, Hemispherical Shell with Point Loads  [SC8R]
  TEST FOR STACK DIR=ORIENTATION WITH A SPHERICAL OREINTATION DEFINITION
*NODE
 64,   9.980000    ,  0.0000000E+00,  0.0000000E+00
 65,   9.788285    ,   1.946998    ,  0.0000000E+00
 66,   9.220323    ,   3.819146    ,  0.0000000E+00
 67,   8.298071    ,   5.544589    ,  0.0000000E+00
 68,   7.056958    ,   7.056958    ,  0.0000000E+00
 69,   9.788285    ,  0.0000000E+00,   1.946998    
 70,   9.604752    ,   1.910471    ,   1.923246    
 71,   9.060543    ,   3.752979    ,   1.850093    
 72,   8.173619    ,   5.461455    ,   1.721949    
 73,   6.973526    ,   6.973526    ,   1.529535    
 74,   9.220323    ,  0.0000000E+00,   3.819146    
 75,   9.061241    ,   1.802388    ,   3.774436    
 76,   8.586593    ,   3.556673    ,   3.636113    
 77,   7.803961    ,   5.214450    ,   3.392302    
 78,   6.725422    ,   6.725422    ,   3.023042    
 79,   8.298071    ,  0.0000000E+00,   5.544589    
 80,   8.178011    ,   1.626740    ,   5.484110    
 81,   7.814938    ,   3.237013    ,   5.296087    
 82,   7.200270    ,   4.811059    ,   4.960858    
 83,   6.318337    ,   6.318337    ,   4.444992    
** ... 121 like lines cut
*ELEMENT,TYPE=SC8R,ELSET=S4_P4
 3000,    64,    65,    70,    69, 1064,  1065,  1070,  1069
 3001,    66,    71,    70,    65, 1066,  1071,  1070,  1065
 3002,    66,    67,    72,    71, 1066,  1067,  1072,  1071
 3003,    67,    68,    73,    72, 1067,  1068,  1073,  1072 
 3004,    73,    68,    89,    93, 1073,  1068,  1089,  1093 
 3005,    89,    90,    94,    93, 1089,  1090,  1094,  1093
 3006,    91,    95,    94,    90, 1091,  1095,  1094,  1090
 3007,    96,    95,    91,    92, 1096,  1095,  1091,  1092
 3008,    74,    69,    70,    75, 1074,  1069,  1070,  1075 
 3009,    70,    71,    76,    75, 1070,  1071,  1076,  1075 
 3010,    72,    77,    76,    71, 1072,  1077,  1076,  1071
 3011,    78,    77,    72,    73, 1078,  1077,  1072,  1073
 3012,    73,    93,    97,    78, 1073,  1093,  1097,  1078 
 3013,    94,    98,    97,    93, 1094,  1098,  1097,  1093
 3014,    99,    98,    94,    95, 1099,  1098,  1094,  1095
 3015,    99,    95,    96,   100, 1099,  1095,  1096,  1100
 3016,    74,    75,    80,    79, 1074,  1075,  1080,  1079 
 3017,    76,    81,    80,    75, 1076,  1081,  1080,  1075
 3018,    82,    81,    76,    77, 1082,  1081,  1076,  1077
 3019,    77,    78,    83,    82, 1077,  1078,  1083,  1082
** ... 28 like lines cut
*ELSET,ELSET=EALL
 S4_P4
*MATERIAL,NAME=A1
*ELASTIC,TYPE=ISO
 6.825E+07,     0.3000,     0.0000
*SHELL SECTION,MATERIAL=A1,ELSET=EALL, STACK DIR=ORIENTATION, ORIENTATION=SPH
 4.000E-02, 
*ORIENTATION, SYSTEM=SPHERICAL, NAME=SPH
 0.0, 0.0, 0.0, 1.0, 0.0, 0.0
 1, 0.0
*NSET,NSET=ZCONSTR
 121,1121
*NSET,NSET=XSYM
 92,96,100,104,108,121,122,123,124
 1092,1096,1100,1104,1108,1121,1122,1123,1124
*NSET,NSET=YSYM
 64,69,74,79,84,109,113,117,121
 1064,1069,1074,1079,1084,1109,1113,1117,1121
*NSET,NSET=DISPSET_FINE
 64,1064
*NSET,NSET=DISPSET
 DISPSET_FINE
*BOUNDARY,OP=NEW
 XSYM,XSYMM
 YSYM,YSYMM
 ZCONSTR,3,3
*RESTART,WRITE
*STEP,PERTURB
*STATIC
*CLOAD,OP=NEW
   64,     1,  1.000E+00
 1064,     1,  1.000E+00
   92,     2, -1.000E+00
 1092,     2, -1.000E+00
*NODE PRINT,NSET=DISPSET_FINE
 U, 
*OUTPUT,FIELD
*NODE OUTPUT
 U,
*ELEMENT OUTPUT
 S,
*END STEP
