*HEADING
: NAFEMS TEST LE3, Hemispherical Shell with Point Loads  [STRI65]
*ELEMENT,TYPE=STRI65     ,ELSET=S8_P2
 2001, 20001, 20003, 20203, 20002, 20103,     4
52001, 20001, 20203, 20201,     4, 20202, 20101
 2002, 20003, 20005, 20205, 20004, 20105,     5
52002, 20003, 20205, 20203,     5, 20204, 20103
 2003, 20005, 20007, 20207, 20006, 20107,     6
52003, 20005, 20207, 20205,     6, 20206, 20105
 2004, 20007, 20009, 20209, 20008, 20109,     7
52004, 20007, 20209, 20207,     7, 20208, 20107
 2005, 20201, 20203, 20403, 20202, 20303,     8
52005, 20201, 20403, 20401,     8, 20402, 20301
 2006, 20203, 20205, 20405, 20204, 20305,     9
52006, 20203, 20405, 20403,     9, 20404, 20303
 2007, 20205, 20207, 20407, 20206, 20307,    10
52007, 20205, 20407, 20405,    10, 20406, 20305
 2008, 20207, 20209, 20409, 20208, 20309,    11
52008, 20207, 20409, 20407,    11, 20408, 20307
 2009, 20403, 20405, 20407, 20404, 20406,    12
52009, 20403, 20407, 20603,    12, 20604, 20503
 2010, 20401, 20403, 20603, 20402, 20503,    13
52010, 20401, 20603, 20601,    13, 20602, 20501
** ... 4 like lines cut
*ELEMENT,TYPE=STRI65     ,ELSET=S8_P4
 4001, 40001, 40003, 40203, 40002, 40103,    43
54001, 40001, 40203, 40201,    43, 40202, 40101
 4002, 40003, 40005, 40205, 40004, 40105,    44
54002, 40003, 40205, 40203,    44, 40204, 40103
 4003, 40005, 40007, 40207, 40006, 40107,    45
54003, 40005, 40207, 40205,    45, 40206, 40105
 4004, 40007, 40009, 40209, 40008, 40109,    46
54004, 40007, 40209, 40207,    46, 40208, 40107
 4005, 40009, 40011, 40211, 40010, 40111,    47
54005, 40009, 40211, 40209,    47, 40210, 40109
 4006, 40011, 40013, 40213, 40012, 40113,    48
54006, 40011, 40213, 40211,    48, 40212, 40111
 4007, 40013, 40015, 40215, 40014, 40115,    49
54007, 40013, 40215, 40213,    49, 40214, 40113
 4008, 40015, 40017, 40217, 40016, 40117,    50
54008, 40015, 40217, 40215,    50, 40216, 40115
 4009, 40201, 40203, 40403, 40202, 40303,    51
54009, 40201, 40403, 40401,    51, 40402, 40301
 4010, 40203, 40205, 40405, 40204, 40305,    52
54010, 40203, 40405, 40403,    52, 40404, 40303
** ... 76 like lines cut
*NODE,NSET=DISPSET
20001,    10.0000,     0.0000,     0.0000,     1.0000,     0.0000,     0.0000
20009,     0.0000,    10.0000,     0.0000,     0.0000,     1.0000,     0.0000
40001,    10.0000,     0.0000,     0.0000,     1.0000,     0.0000,     0.0000
40017,     0.0000,    10.0000,     0.0000,     0.0000,     1.0000,     0.0000
*NODE,NSET=GENSET
20002,     9.8079,     1.9509,     0.0000,     0.9808,     0.1951,     0.0000
20003,     9.2388,     3.8268,     0.0000,     0.9239,     0.3827,     0.0000
20004,     8.3147,     5.5557,     0.0000,     0.8315,     0.5556,     0.0000
20005,     7.0711,     7.0711,     0.0000,     0.7071,     0.7071,     0.0000
20101,     9.8079,     0.0000,     1.9509,     0.9808,     0.0000,     0.1951
20103,     9.0787,     3.7605,     1.8538,     0.9079,     0.3760,     0.1854
20105,     6.9875,     6.9875,     1.5326,     0.6988,     0.6988,     0.1533
20201,     9.2388,     0.0000,     3.8268,     0.9239,     0.0000,     0.3827
20202,     9.0794,     1.8060,     3.7820,     0.9079,     0.1806,     0.3782
20203,     8.6038,     3.5638,     3.6434,     0.8604,     0.3564,     0.3643
20204,     7.8196,     5.2249,     3.3991,     0.7820,     0.5225,     0.3399
20205,     6.7389,     6.7389,     3.0291,     0.6739,     0.6739,     0.3029
20301,     8.3147,     0.0000,     5.5557,     0.8315,     0.0000,     0.5556
20303,     7.8306,     3.2435,     5.3067,     0.7831,     0.3244,     0.5307
20305,     6.3310,     6.3310,     4.4539,     0.6331,     0.6331,     0.4454
20401,     7.0711,     0.0000,     7.0711,     0.7071,     0.0000,     0.7071
20402,     7.0021,     1.3928,     7.0021,     0.7002,     0.1393,     0.7002
20403,     6.7860,     2.8108,     6.7860,     0.6786,     0.2811,     0.6786
20404,     6.3934,     4.2719,     6.3934,     0.6393,     0.4272,     0.6393
20405,     5.7735,     5.7735,     5.7735,     0.5774,     0.5774,     0.5774
** ... 194 like lines cut
*NODE,NSET=MIDNOD
    4,     9.6211,     1.9176,     1.9382,     0.9621,     0.1918,     0.1938
    5,     8.1839,     5.4815,     1.7252,     0.8184,     0.5482,     0.1725
    6,     5.4815,     8.1839,     1.7252,     0.5482,     0.8184,     0.1725
    7,     1.9176,     9.6211,     1.9382,     0.1918,     0.9621,     0.1938
    8,     8.1838,     1.6457,     5.5060,     0.8184,     0.1646,     0.5506
    9,     7.1920,     4.8683,     4.9572,     0.7192,     0.4868,     0.4957
   10,     4.8683,     7.1920,     4.9572,     0.4868,     0.7192,     0.4957
   11,     1.6457,     8.1838,     5.5060,     0.1646,     0.8184,     0.5506
   12,     4.8869,     4.9074,     7.2136,     0.4887,     0.4907,     0.7214
   13,     5.4898,     1.6676,     8.1903,     0.5490,     0.1668,     0.8190
   14,     1.6457,     5.5060,     8.1838,     0.1646,     0.5506,     0.8184
   15,     1.9176,     1.9382,     9.6211,     0.1918,     0.1938,     0.9621
   43,     9.9040,     0.9756,     0.9788,     0.9904,     0.0976,     0.0979
   44,     9.5257,     2.8899,     0.9541,     0.9526,     0.2890,     0.0954
   45,     8.7829,     4.6952,     0.9028,     0.8783,     0.4695,     0.0903
   46,     7.7035,     6.3231,     0.8212,     0.7704,     0.6323,     0.0821
   47,     6.3231,     7.7035,     0.8212,     0.6323,     0.7704,     0.0821
   48,     4.6952,     8.7829,     0.9028,     0.4695,     0.8783,     0.0903
   49,     2.8899,     9.5257,     0.9541,     0.2890,     0.9526,     0.0954
   50,     0.9756,     9.9040,     0.9788,     0.0976,     0.9904,     0.0979
** ... 40 like lines cut
*ELSET,ELSET=EALL
S8_P2,S8_P4
*MATERIAL,NAME=A1
*ELASTIC,TYPE=ISO
 6.825E+07,     0.3000,     0.0000
*SHELL SECTION,MATERIAL=A1,ELSET=EALL
 4.000E-02, 
*NSET,NSET=XSYM,GEN
 20009,20409,100
 20801,20804,1
 40017,40817,100
 41601,41608,1
*NSET,NSET=YSYM,GEN
 20001,20801,100
 40001,41601,100
*BOUNDARY,OP=NEW
 XSYM,XSYMM
 YSYM,YSYMM
 20801,3,3
 41601,3,3
*STEP
*STATIC
*CLOAD,OP=NEW
20001,     1,  2.000E+00
20009,     2, -2.000E+00
40001,     1,  2.000E+00
40017,     2, -2.000E+00
*NODE PRINT,TOTAL=YES,NSET=DISPSET
 U, 
 COORD,
*NODE FILE,NSET=DISPSET
 U, 
 COORD,
*OUTPUT,FIELD
*NODE OUTPUT,NSET=DISPSET
U,
COORD,
*EL PRINT,FREQUENCY=0
*END STEP
