$assign master='DBSDIR:d10111d.MASTER'
$ DEC/CMS REPLACEMENT HISTORY, Element D10112R.DAT
$ *1    15-JUN-1990 16:34:05 CMSMGR "66B PLUS/G 66B/ Initial installation of DEMO test problems"
$ DEC/CMS REPLACEMENT HISTORY, Element D10112R.DAT
RESTART version=1 keep $ RESTART FROM D10111D, DBS=D10111D
ID MSC, D10112R $  V66, SSW $ last modified 9-jul-1997 dvw
$ID MSC, D6112R   $  MODIFIED BY JRH MAR 84
$ID MSC, D6112 $ MAG 9FEB82
TIME 11
SOL 101
CEND
TITLE = REINFORCED CYLINDRICAL SHELL, RESTART                  D10112R
SUBTITLE = MULTILEVEL SUPERELEMENTS,
LABEL = S.E. MATRIX GENERATION
ECHO = SORT(PARAM,MAT1)
$ GENERATE STIFFNESS AND LOAD MATRIX
$ FOR S.E. 10,0 (20,30 ALREADY DONE)
$ SET 100 = 10,0 $ THE SET NOT FINISHED DUE TO ERROR ON FIRST RUN
$ SELG    = 100 USE AUTOMATIC RESTART CAPABILITY IN V66
$ SEMG    = 100 USE AUTOMATIC RESTART CAPABILITY IN V66
$  ASSEMBLE AND REDUCE ALL SUPERELEMENTS
$ SEKR  = ALL USE AUTOMATIC RESTART CAPABILITY IN V66
$ SELR  = ALL USE AUTOMATIC RESTART CAPABILITY IN V66
SPC   = 1000
DISPL = ALL
SPCFORCE = ALL
ELFORCE  = ALL
OLOAD = ALL
ESE   = ALL
LOAD  = 1000
SUPER=ALL
$
OUTPUT(PLOT)
CSCALE 1.8
$ 1
 SEPLOT  30
SET 30  = ALL
$       DEFAULT VIEW IS ISOMETRIC
AXES    X,Y,Z
FIND SCALE, ORIGIN, SET 30
PTITLE = STIFFENERS. ISOMETRIC VIEW
PLOT SET 30 LABEL GRID
$ 2
 SEPLOT  30
SET 30  = ALL
$       DEFAULT VIEW IS ISOMETRIC
AXES    X,Y,Z
FIND SCALE, ORIGIN, SET 30
PTITLE = STIFFENERS. ISOMETRIC VIEW
PLOT SET 30 LABEL ELEMENTS
$ 3
 SEPLOT  20
SET 20  = ALL
VIEW    0.,0.,0.
AXES    Z,X,Y
FIND SCALE,ORIGIN,SET 20
PTITLE = FLANGE, OVERHEAD VIEW
PLOT SET 20 LABEL GRIDS
$ 4
 SEPLOT  20
SET 20  = ALL
VIEW    0.,0.,0.
AXES    Z,X,Y
FIND SCALE,ORIGIN,SET 20
PTITLE = FLANGE, OVERHEAD VIEW
PLOT SET 20 LABEL ELEMENTS
$ 5
 SEupPLOT  10
SET 10  = 1 thru 999999 except 300,400,900,1000
VIEW    0.,0.,0.
AXES    X,Y,Z
FIND SCALE,ORIGIN,SET 10
PTITLE = SKIN, VIEW FROM CENTER OF TANK
PLOT SET 10 LABEL GRIDS
$ 6
 SEupPLOT  10
SET 101  = 1 thru 999999 exclude elements 300,400,900,1000
VIEW    0.,0.,0.
AXES    X,Y,Z
FIND SCALE,ORIGIN,SET 101
PTITLE = SKIN, VIEW FROM CENTER OF TANK
PLOT SET 101 LABEL ELEMENTS
$ 7
 SEupPLOT 0
SET 200 = ALL
VIEW 0.,0.,0.
AXES    X,Y,Z
FIND SCALE,ORIGIN, SET 200
PTITLE = A COMPLETE STRUCTURE
PLOT SET 200
$ d1
 SEPLOT  10
SET 100  = ALL
VIEW    0.,0.,0.
AXES    X,Y,Z
FIND SCALE,ORIGIN,SET 100
PTITLE = SKIN, VIEW FROM CENTER OF TANK
PLOT STATIC DEFORMATION 0 SET 100, SHAPE
$ d2
 SEPLOT  20
SET 20  = ALL
VIEW    0.,0.,0.
AXES    Z,X,Y
FIND SCALE,ORIGIN,SET 20
PTITLE = FLANGE, OVERHEAD VIEW
PLOT STATIC DEFORMATION 0 SET 20, SHAPE
$ d3
 SEPLOT  30
SET 30  = ALL
$       DEFAULT VIEW IS ISOMETRIC
AXES    X,Y,Z
FIND SCALE, ORIGIN, SET 30
PTITLE = STIFFENERS. ISOMETRIC VIEW
PLOT STATIC DEFORMATION 0 SET 30, SHAPE
$ d4
 SEUPPLOT 10
SET 40  = ALL
$ DEFAULT AXES AND VIEW
FIND SCALE, ORIGIN, SET 40
PTITLE = S.E. 10 AND ALL UPSTREAM S.E.
PLOT STATIC DEFORMATION 0 SET 40,SHAPE
$
BEGIN BULK
$       ONLY BULK CARD  ADDED THIS RUN
MAT1    10      1.+7            0.3     0.1
ENDDATA
