$ DEC/CMS REPLACEMENT HISTORY, Element D10139.DAT
$ *1    15-JUN-1990 16:34:20 CMSMGR "66B PLUS/G 66B/ Initial installation of DEMO test problems"
$ DEC/CMS REPLACEMENT HISTORY, Element D10139.DAT
ID MSC, D10139   $
$ID MSC, D2439    $ SCR=YES
$ID MSC, D24D39   $
$SOL     24,1,3
SOL 101
TIME 5
CEND
TITLE=CANTILEVER BEAM MODELLED WITH HEXA AND PENTA ELEMENTS    D10139
SUBTITLE=FOUR DISJOINTED BUT EQUIVALENT PROBLEMS
ECHO=UNSORT
SPCF=ALL
SPC=100
LOAD=100
DISPL=ALL
STRESS=ALL
$ LAST MODIFIED 14-JUN-1983
BEGIN BULK
$
$ 8 NODE CHEXA MODEL
$
GRID    1               0.      0.      0.
GRID    2               0.      .4      0.
GRID    3               0.      .4      .5
GRID    4               0.      0.      .5
GRID    5               1.      0.      0.
GRID    6               1.      .4      0.
GRID    7               1.      .4      .5
GRID    8               1.      0.      .5
GRID    9               2.      0.      0.
GRID    10              2.      .4      0.
GRID    11              2.      .4      .5
GRID    12              2.      0.      .5
GRID    13              3.      0.      0.
GRID    14              3.      .4      0.
GRID    15              3.      .4      .5
GRID    16              3.      0.      .5
GRID    17              4.      0.      0.
GRID    18              4.      .4      0.
GRID    19              4.      .4      .5
GRID    20              4.      0.      .5
$ ... 4 like lines cut
SPC1    100     123     1       2       3       4
CHEXA   1       8       1       2       3       4       5       6       +CHEX1
+CHEX1  7       8
CHEXA   2       8       5       6       7       8       9       10      +CHEX2
+CHEX2  11      12
CHEXA   3       8       9       10      11      12      13      14      +CHEX3
+CHEX3  15      16
CHEXA   4       8       13      14      15      16      17      18      +CHEX4
+CHEX4  19      20
CHEXA   5       8       17      18      19      20      21      22      +CHEX5
+CHEX5  23      24
PLOAD4  100     5       .2                              24      22      +ABC
+ABC    0       0.      0.      -1.0
$
$ 20 NODE CHEXA MODEL
$
GRID    101             0.      0.      0.
GRID    102             0.      .2      0.
GRID    103             0.      .4      0.
GRID    104             0.      .4      .25
GRID    105             0.      .4      .5
GRID    106             0.      .2      .5
GRID    107             0.      0.      .5
GRID    108             0.      0.      .25
GRID    109             .5      0.      0.
GRID    110             .5      .4      0.
GRID    111             .5      .4      .5
GRID    112             .5      0.      .5
GRID    113             1.      0.      0.
GRID    114             1.      .2      0.
GRID    115             1.      .4      0.
GRID    116             1.      .4      .25
GRID    117             1.      .4      .5
GRID    118             1.      .2      .5
GRID    119             1.      0.      .5
GRID    120             1.      0.      .25
$ ... 48 like lines cut
SPC1    100     123     101     THRU    108
CHEXA   101     8       101     103     105     107     113     115     +CHEX10
+CHEX10 117     119     102     104     106     108     109     110     +CHEX11
+CHEX11 111     112     114     116     118     120
CHEXA   102     8       113     115     117     119     125     127     +CHEX12
+CHEX12 129     131     114     116     118     120     121     122     +CHEX13
+CHEX13 123     124     126     128     130     132
CHEXA   103     8       125     127     129     131     137     139     +CHEX14
+CHEX14 141     143     126     128     130     132     133     134     +CHEX15
+CHEX15 135     136     138     140     142     144
CHEXA   104     8       137     139     141     143     149     151     +CHEX16
+CHEX16 153     155     138     140     142     144     145     146     +CHEX17
+CHEX17 147     148     150     152     154     156
CHEXA   105     8       149     151     153     155     161     163     +CHEX18
+CHEX18 165     167     150     152     154     156     157     158     +CHEX19
+CHEX19 159     160     162     164     166     168
PLOAD4  100     105     .2                              161     165     +BCD
+BCD    0       0.      0.      -1.0
$
$ 6 NODE CPENTA MODEL
$
GRID    201             0.      0.      0.
GRID    202             0.      .4      0.
GRID    203             0.      .4      .5
GRID    204             0.      0.      .5
GRID    205             1.      0.      0.
GRID    206             1.      .4      0.
GRID    207             1.      .4      .5
GRID    208             1.      0.      .5
GRID    209             2.      0.      0.
GRID    210             2.      .4      0.
GRID    211             2.      .4      .5
GRID    212             2.      0.      .5
GRID    213             3.      0.      0.
GRID    214             3.      .4      0.
GRID    215             3.      .4      .5
GRID    216             3.      0.      .5
GRID    217             4.      0.      0.
GRID    218             4.      .4      0.
GRID    219             4.      .4      .5
GRID    220             4.      0.      .5
$ ... 4 like lines cut
SPC1    100     123     201     202     203     204
CPENTA  201     8       203     204     208     202     201     205
CPENTA  202     8       203     207     208     202     206     205
CPENTA  203     8       207     208     212     206     205     209
CPENTA  204     8       207     211     212     206     210     209
CPENTA  205     8       211     212     216     210     209     213
CPENTA  206     8       211     215     216     210     214     213
CPENTA  207     8       215     216     220     214     213     217
CPENTA  208     8       215     219     220     214     218     217
CPENTA  209     8       219     220     224     218     217     221
CPENTA  210     8       219     223     224     218     222     221
PLOAD4  100     210     .2                              221     223     +CDE
+CDE    0       0.      0.      -1.0
$
$ 15 NODE CPENTA MODEL
$
GRID    301             0.      0.      0.
GRID    302             0.      .2      0.
GRID    303             0.      .4      0.
GRID    304             0.      .4      .25
GRID    305             0.      .4      .5
GRID    306             0.      .2      .5
GRID    307             0.      0.      .5
GRID    308             0.      0.      .25
GRID    309             .5      0.      0.
GRID    310             .5      .4      0.
GRID    311             .5      .2      0.0
GRID    312             .5      .4      .5
GRID    313             .5      0.      .5
GRID    314             .5      .2      0.5
GRID    315             1.      0.      0.
GRID    316             1.      .2      0.
GRID    317             1.      .4      0.
GRID    318             1.      .4      .25
GRID    319             1.      .4      .5
GRID    320             1.      .2      .5
$ ... 58 like lines cut
SPC1    100     123     301     THRU    308
CPENTA  301     8       305     307     321     303     301     315     +C1
+C1     306     313     314     304     308     322     302     309     +C2
+C2     311
CPENTA  302     8       321     319     305     315     317     303     +C3
+C3     320     312     314     322     318     304     316     310     +C4
+C4     311
CPENTA  303     8       319     321     335     317     315     329     +C5
+C5     320     327     328     318     322     336     316     323     +C6
+C6     325
CPENTA  304     8       335     333     319     329     331     317     +C7
+C7     334     326     328     336     332     318     330     324     +C8
+C8     325
CPENTA  305     8       333     335     349     331     329     343     +C9
+C9     334     341     342     332     336     350     330     337     +C10
+C10    339
CPENTA  306     8       349     347     333     343     345     331     +C11
+C11    348     340     342     350     346     332     344     338     +C12
+C12    339
CPENTA  307     8       347     349     363     345     343     357     +C13
+C13    348     355     356     346     350     364     344     351     +C14
+C14    353
CPENTA  308     8       363     361     347     357     359     345     +C15
+C15    362     354     356     364     360     346     358     352     +C16
+C16    353
CPENTA  309     8       361     363     377     359     357     371     +C17
+C17    362     369     370     360     364     378     358     365     +C18
+C18    367
CPENTA  310     8       377     375     361     371     373     359     +C19
+C19    376     368     370     378     374     360     372     366     +C20
+C20    367
PLOAD4  100     310     .2                              371     375     +DEF
+DEF    0       0.      0.      -1.
$
$  COMMON DATA FOR EACH PROBLEM
$
PSOLID  8       1       0
MAT1    1       3.+7            0.3
GRDSET                                                  456
ENDDATA
