$ DEC/CMS REPLACEMENT HISTORY, Element HD15302.DAT
$ *2    13-JAN-1994 16:42:08 A_BOYADJIAN "68 PLUS/G/ HEAT TRANSFER CONVERTED DECKS FOR V68 /DCC"
$ *1    15-JUN-1990 16:38:02 CMSMGR "66B PLUS/G 66B/ Initial installation of DEMO test problems"
$ DEC/CMS REPLACEMENT HISTORY, Element HD15302.DAT
$ DEC/CMS REPLACEMENT HISTORY, ELEMENT HD15302.DAT
$ *1    15-JUN-1990 16:38:02 CMSMGR "66B PLUS/G 66B/ INITIAL INSTALLATION OF DEMO TEST PROBLEMS"
$ DEC/CMS REPLACEMENT HISTORY, ELEMENT HD15302.DAT
ID MSC, HD15302  $
$ID MSC, HDEM04   $
$ID MSC, HDEMO04  $
$ID CLASS PROBLEM FOUR. C.E.JACKSON
$
$       MAXIMUM CPU TIME ALLOWED FOR THE JOB
$
TIME 10 $ UNITS ARE MINUTES
$
$       THE THERMAL ANALYZER PORTION OF MSC/NASTRAN IS TO BE USED
$
$
$       THE NON-LINEAR STEADY STATE ALGORITHM IS TO BE USED
$
$SOL 74
SOL 153
CEND $ END OF EXECUTIVE CONTROL DECK
ANALYSIS = HEAT
NLPARM = 100
SPC=101
TEMP(INIT)=400
$
$*******
$       END OF EXECUTIVE CONTROL  ...  START CASE CONTROL
$*******
$
TITLE=          NON-LINEAR STEADY-STATE PROBLEM ...K = F(T)    HD15302
$       REQUEST SORTED AND UNSORTED CARD ECHO=S  TO SEE COMMENTS
$       IF THIS CARD IS OMITTED ONLY THE SORTED BULK DATA WILL APPEAR
$       COMMENT CARDS WOULD THEN NOT BE PRINTED
ECHO = BOTH
$
$       SPECIFY THE SUPERELEMENTS TO BE RUN
$       THIS CARD IS REQUIRED AND SPECIFIES ALL
$       FOR THIS MODEL THERE IS BUT A SINGLE SUPERELEMENT WHICH
$               ENCOMPASSES THE ENTIRE MODEL
$SEALL=ALL IS DEFAULT FOR SOL 153
$
$
$       SELECT THE SPC,MPC AND LOAD SETS TO BE USED IN THIS RUN
$
MPC=200
LOAD=300
$
$       SELECT THE TEMPERATURE SET WHICH IS AN ESTIMATE OF THE FINAL
$               SOLUTION VECTOR
$
$
$       SELECT THE OUTPUT DESIRED (TEMPERATURES,LOADS, AND CONSTRAINT
$               POWERS)
$
OUTPUT
THERMAL = ALL
OLOAD = ALL
SPCF = ALL
$*******
$       PLOT PACKAGE TO DISPLAY MODEL AND SOLUTION
$*******
OUTPUT(PLOT)
CSCALE 1.8
PLOTTER NASTRAN
SET 1 INCLUDE ALL EXCEPT HBDY
SET 2 INCLUDE HBDY EXCEPT 500,600,700
AXES Z,X,Y
VIEW 0.,0.,0.
FIND SET 2 ORIGIN 2 SCALE
FIND SET 1 ORIGIN 1 SCALE
PTITLE = BASIC MODEL
PLOT SET 1
PTITLE = LABEL GRIDS
PLOT SET 1 LABEL GRIDS
PTITLE = LABEL ELEMENTS
PLOT SET 1 LABEL ELEMENTS
PTITLE = LABEL ELEMENT PROPERTIES
PLOT SET 1 LABEL EPID
PTITLE = CHECK RADIATION ELEMENTS
PLOT SET 2 ORIGIN 2 LABEL ELEMENTS
PTITLE = THERMAL DEFORMATION
AXES X,Y,Z
VIEW 34.27,23.17,0.
FIND SET 1 SCALE ORIGIN 1
PLOT STATIC DEFORMATION 0,1 SET 1 ORIGIN 1
PTITLE = THERMAL CONTOUR
CONTOUR MAGNITUDE
PLOT CONTOUR 0,1 SET 1 OUTLINE PRINT
$
$*******
$       END CASE CONTROL ... START BULK DATA
$
BEGIN BULK $ ENDS CASECONTROL DECK
NLPARM, 100
$
$
$       UNITS MUST BE CONSISTENT
$       IN THIS PROBLEM METERS,WATTS,AND DEGREES CELSIUS ARE USED.
$
$       DEFINE GRID POINTS
$
$
$       CONNECT GRID POINTS
$
$
$       THESE ELEMENTS IMPROVE PLOT BUT DO NOT CHANGE ANSWERS
$
$
$       DEFINE CROSS-SECTIONAL AREAS AND/OR THICKNESS
$
$
$       DEFINE MATERIAL THERMAL CONDUCTIVITY
$
$
$       DEFINE CONVECTIVE AREA AND CONVECTIVE COEFFICIENT =H=
$
$
$       DEFINE CONSTRAINTS
$
$
$       DEFINE APPLIED LOADS
$
$
$*************
$       THE FOLLOWING BULK DATA CARDS WERE ADDED TO CONVERT PROBLEM ONE
$       PROBLEM TWO.
$
$       THIS SPC1 REPRESENTS THE CONSTRAINTS FOR PROBLEM TWO
$
$
$       RADIATION BOUNDARY ELEMENTS
$
$
$       EMISSIVITY OF RADIATING ELEMENT
$
$
$       ESTIMATE OF FINAL STEADY STATE SOLUTION VECTOR --REFERENCED BY
$       TEMP(ESTIMATE) IN CASE CONTROL
$
$
$       PARAMETERS CONTROLLING RADIATION LOADING AND THE ITERATION LOOPI
$
$
$       PARAMETER TO TURN OFF PLOT MESSAGES
$
$
$       DEFINITION OF THE RADIATION MATRIX
$               ALL OF THE RADIATION GOES TO SPACE
$
$RADLST,200,300,400,500,600,700
$RADMTX,1,0.,0.,0.,0.,0.,0.
$RADMTX,2,0.,0.,0.,0.,0.
$RADMTX,3,0.,0.,0.,0.
$RADMTX,4,0.,0.,0.
$RADMTX,5,0.,0.
$RADMTX,6,0.
$
$*********
$       THE FOLLOWING BULK DATA CARDS WERE ADDED TO CONVERT PROBLEM
$
$               TWO TO PROBLEM FOUR
$       PROBLEM FOUR HAS THE CONDUCTIVITY AS A FUNCTION OF TEMPERATURE
$
$       MAKE THE CONDUCTIVITY OF MAT4 CARD 1000 TEMP DEPENDENT.
$       AT A TEMPERATURE OF 200 C. THE CONDUCTIVITY WILL BE 200 WATTS/MT
$       AT A TEMPERATURE OF 300 C. THE CONDUCTIVITY WILL BE 250 WATTS/MT
$
$
$*******
$       END OF BULK DATA DECK
$
CHBDYP  60      300     LINE                    1       5
                                                        1.
CHBDYG  200             AREA4   10              2000
        1       2       6       5
CHBDYG  300             AREA4   10              2000
        2       3       7       6
CHBDYG  400             AREA4   10              2000
        3       4       8       7
CHBDYG  500             AREA4   10              2000
        5       6       2       1
CHBDYG  600             AREA4   10              2000
        6       7       3       2
CHBDYG  700             AREA4   10              2000
        7       8       4       3
PHBDY   300     .314
PCONV   300     3000
CONV    60      300                     100     100
RADM    2000            .90
CQUAD4  30      200     1       2       6       5
CQUAD4  40      200     2       3       7       6
CQUAD4  50      200     3       4       8       7
CROD    10      100     10      2
CROD    20      100     9       6
GRID    1
GRID    2               .1
GRID    3               .2
GRID    4               .3
GRID    5                       .1
GRID    6               .1      .1
GRID    7               .2      .1
GRID    8               .3      .1
GRID    9                       .2
GRID    10                      -.1
GRID    100             -.05    .05
MAT4    1000    200.
MAT4    3000                            200.
MATT4   1000    2000
MPC     200     9       1       1.      5       1       -1.
MPC     200     10      1       1.      1       1       -1.
PARAM   EPSHT   .0001
PARAM   MAXIT   8
PARAM   MESH    YES
PARAM   PLTMSG  0
PARAM   SIGMA   5.685E-8
PARAM   TABS    273.15
PLOTEL  70      5       9
PLOTEL  80      1       10
PROD    100     1000    .001
PSHELL  200     1000    .01
SLOAD   300     1       4.      2       8.
SLOAD   300     3       8.      4       4.
SLOAD   300     5       4.      6       8.
SLOAD   300     7       8.      8       4.
SPC     100     100     1       300.
SPC     101     100     1       300.
TABLEM1 2000
        200.    1.      300.    1.25    ENDT
TEMP    400     100     300.
TEMPD   400     300.
VIEW    10      1       NONE    3       3
RADCAV  1                                               0.1
RADSET  1
$
$User Information Message: A number of default values are used when certain parameters are not available from the old decks.
$                          These parameters are given as the follows:
$CHBDYP  E1=3.141 E2=1.414 E3=1.732
$PHBDY   D1=1. D2=1.
$PCONVM  FORM=0 FLAG=1 COEF=1.E-6 EXPR=0. EXPPI=0. EXPPO=0.
$CONVM   TA1=99999
$SPC     C1=1
$MAT4    RHO (DENSITY) = 1.
$VIEW3D  ICAVITY=1
$RADCAV  ICAVITY=1 RMAX=0.1
$RADMTX  ICAVITY=1
$RADLST  ICAVITY=1 MTXTYP=1
ENDDATA
