$ DEC/CMS REPLACEMENT HISTORY, Element HD15305.DAT
$ *2    23-FEB-1994 11:56:11 S_PATEL "68 PLUS/G/ modified for V68 user interface"
$ *1    15-JUN-1990 16:38:14 CMSMGR "66B PLUS/G 66B/ Initial installation of DEMO test problems"
$ DEC/CMS REPLACEMENT HISTORY, Element HD15305.DAT
ID MSC, HD15305  $
$ID MSC, HDEM08   $
$ID MSC, HDEMO08  $
$ID CLASS PROBLEM EIGHT. C.E.JACKSON
$
$       MAXIMUM CPU TIME ALLOWED FOR THE JOB
$
TIME 10 $ UNITS ARE MINUTES
$
$       THE THERMAL ANALYZER PORTION OF MSC/NASTRAN IS TO BE USED
$
$
$       THE NON-LINEAR STEADY STATE ALGORITHM IS TO BE USED
$
$SOL 74
SOL 153
CEND $ END OF EXECUTIVE CONTROL DECK
ANALYSIS = HEAT
NLPARM = 100
SPC=101
TEMPERATURE(INITIAL) = 400
$
$*******
$       END OF EXECUTIVE CONTROL  ...  START CASE CONTROL
$*******
$
TITLE=          NON-LINEAR STEADY-STATE PROBLEM                HD15305
SUBTITLE=       CONVECTIVE MULTILAYER INSULATION
$
$       REQUEST SORTED AND UNSORTED CARD ECHO=S  TO SEE COMMENTS
$       IF THIS CARD IS OMITTED ONLY THE SORTED BULK DATA WILL APPEAR
$       COMMENT CARDS WOULD THEN NOT BE PRINTED
ECHO = BOTH
$
$       SPECIFY THE SUPERELEMENTS TO BE RUN
$       THIS CARD IS REQUIRED AND SPECIFIES ALL
$       FOR THIS MODEL THERE IS BUT A SINGLE SUPERELEMENT WHICH
$               ENCOMPASSES THE ENTIRE MODEL
$SEALL=ALL  IS DEFAULT FOR  SOL 153
$
$
$       SELECT THE SPC,MPC AND LOAD SETS TO BE USED IN THIS RUN
$
MPC=200
LOAD=300
$
$       SELECT THE TEMPERATURE SET WHICH IS AN ESTIMATE OF THE FINAL
$               SOLUTION VECTOR
$
$
$       SELECT THE OUTPUT DESIRED (TEMPERATURES,LOADS, AND CONSTRAINT
$               POWERS)
$
OUTPUT
THERMAL(PRINT,PUNCH) = ALL
OLOAD = ALL
SPCF = ALL
FLUX = ALL
$*******
$       PLOT PACKAGE TO DISPLAY MODEL AND SOLUTION
$*******
OUTPUT(PLOT)
CSCALE 1.8
PLOTTER NASTRAN
SET 1 INCLUDE ALL EXCEPT HBDY
SET 2 INCLUDE HBDY EXCEPT 500,600,700
AXES Z,X,Y
VIEW 0.,0.,0.
FIND SET 1 ORIGIN 1 SCALE
PTITLE = BASIC MODEL
PLOT SET 1
PTITLE = LABEL GRIDS
PLOT SET 1 LABEL GRIDS
PTITLE = LABEL ELEMENTS
PLOT SET 1 LABEL ELEMENTS
PTITLE = LABEL ELEMENT PROPERTIES
PLOT SET 1 LABEL EPID
PTITLE = CHECK RADIATION ELEMENTS
FIND SET 2 ORIGIN 2 SCALE
PLOT SET 2 ORIGIN 2 LABEL ELEMENTS
PTITLE = THERMAL DEFORMATION
AXES X,Y,Z
VIEW 34.27,23.17,0.
FIND SET 1 SCALE ORIGIN 1
PLOT STATIC DEFORMATION 0,1 SET 1 ORIGIN 1
PTITLE = THERMAL CONTOUR
CONTOUR MAGNITUDE
PLOT CONTOUR 0,1 SET 1 ORIGIN 1 OUTLINE PRINT
$
$*******
$       END CASE CONTROL ... START BULK DATA
$
BEGIN BULK $ ENDS CASECONTROL DECK
$
$ USER INFORMATION MESSAGE: The following defaults were assumed for data
$                           not required in earlier versions of MSC/NASTRAN.
$
$        CONVM   TA1=99999
$        PHBDY   D1=1.0, D2=1.0
$        CHBDYP  E1=3.141, E2=1.414, E3=1.732
$        MAT4    RHO (DENSITY)=1.
$        PCONVM  FORM=0, FLAG=1, COEF=1.E-6, EXPR=0., EXPPI=0., EXPPO=0.
$        SPC     C1=1
$        RADCAV  ICAVITY=1, RMAX=0.1
$        RADMTX  ICAVITY=1
$        RADLST  ICAVITY=1, MTXTYP=1
$        VIEW3D  ICAVITY=1
$
NLPARM  100
$
$
$       UNITS MUST BE CONSISTENT
$       IN THIS PROBLEM METERS,WATTS,AND DEGREES CELSIUS ARE USED.
$
$       DEFINE GRID POINTS
$
GRID    1
GRID    2               .1
GRID    3               .2
GRID    4               .3
GRID    5                       .1
GRID    6               .1      .1
GRID    7               .2      .1
GRID    8               .3      .1
GRID    9                       .2
GRID    10                      -.1
GRID    100             -.05    .05
$
$       CONNECT GRID POINTS
$
CROD    10      100     10      2
CROD    20      100     9       6
CQUAD4  30      200     1       2       6       5
CQUAD4  40      200     2       3       7       6
CQUAD4  50      200     3       4       8       7
$
$       THESE ELEMENTS IMPROVE PLOT BUT DO NOT CHANGE ANSWERS
$
PLOTEL  70      5       9
PLOTEL  80      1       10
$
$       DEFINE CROSS-SECTIONAL AREAS AND/OR THICKNESS
$
PROD    100     1000    .001
PSHELL  200     1000    .01
$
$       DEFINE MATERIAL THERMAL CONDUCTIVITY
$
MAT4    1000    200.
$
$       DEFINE CONVECTIVE AREA AND CONVECTIVE COEFFICIENT =H=
$
CHBDYP  60      300     LINE                    1       5               +
+                                                       1.
CONV    60      300                     100     100
PHBDY   300     .314
PCONV   300     3000
MAT4    3000                            200.
$
$       DEFINE CONSTRAINTS
$
SPC     100     100     1       300.
MPC     200     9       1       1.      5       1       -1.
MPC     200     10      1       1.      1       1       -1.
$
$       DEFINE APPLIED LOADS
$
SLOAD   300     1       4.      2       8.
SLOAD   300     3       8.      4       4.
SLOAD   300     5       4.      6       8.
SLOAD   300     7       8.      8       4.
$
$*************
$       THE FOLLOWING BULK DATA CARDS WERE ADDED TO CONVERT PROBLEM ONE TO
$       PROBLEM TWO.
$
$       THIS SPC1 REPRESENTS THE CONSTRAINTS FOR PROBLEM TWO
$
SPC     101     100     1       300.
$
$       RADIATION BOUNDARY ELEMENTS
$
CHBDYG  200             AREA4                   2000                    +
+       1       2       6       5
CHBDYG  300             AREA4                   2000                    +
+       2       3       7       6
CHBDYG  400             AREA4                   2000                    +
+       3       4       8       7
CHBDYG  500             AREA4                   2000                    +
+       5       6       2       1
CHBDYG  600             AREA4                   2000                    +
+       6       7       3       2
CHBDYG  700             AREA4                   2000                    +
+       7       8       4       3
$
$       EMISSIVITY OF RADIATING ELEMENT
$
RADM    2000            .90
$
$       ESTIMATE OF FINAL STEADY STATE SOLUTION VECTOR --REFERENCED BY
$       TEMP(ESTIMATE) IN CASE CONTROL
$
TEMP    400     100     300.
TEMPD   400     300.
$
$       PARAMETERS CONTROLLING RADIATION LOADING AND THE ITERATION LOOPING
$
PARAM   TABS    273.15
PARAM   SIGMA   5.685E-8
PARAM   MAXIT   40
PARAM   EPSHT   .0001
$
$       PARAMETER TO TURN OFF PLOT MESSAGES
$
PARAM   PLTMSG  0
$
$       DEFINITION OF THE RADIATION MATRIX
$               ALL OF THE RADIATION GOES TO SPACE
$
$RADLST  1       1       200     300     400     500     600     700
RADCAV  1                                               0.1
RADSET  1
RADMTX  1       1       0.      0.      0.      0.      0.      0.
RADMTX  1       2       0.      0.      0.      0.      0.
RADMTX  1       3       0.      0.      0.      0.
RADMTX  1       4       0.      0.      0.
RADMTX  1       5       0.      0.
RADMTX  1       6       0.
$
$***********
$       THE FOLLOWING CARDS WILL CONVERT PROBLEM TWO TO EIGHT
$
$       PROBLEM EIGHT ADDS MULTILAYER INSULATION TO BOTH SIDES OF THE
$               RADIATING FIN
$       AND DOES THIS BY SIMULATING AN EFFECTIVE CONVECTIVITY FROM THE
$       FIN TO THE RADIATING SURFACES WHICH IS DEPENDENT ON THE THICKNESS
$       OF THE MULTILAYER INSULATION.
$
$       NOTE THAT THE RADLST CARD HAS BEEN REPLACED
$       NOTE THAT THE THERMAL GUESS VECTOR HAS NOT BEEN CHANGED,
$       ITS INACCURITIES INFLUENCE THE CONVERGENCE RATE
$       AS LONG AS THE TEMPERATURE GUESSES ARE GREATER THAN 80 PERCENT
$       OF THE FINAL SOLUTION AT EACH POINT. THEN CONVERGENCE WILL OCCUR
$
$       THE FOLLOWING GRID POINTS AND CHBDY CARDS DEFINE THE NEW
$       RADIATING SURFACES.
$       NOTE THAT CONVECTION IS SPECIFIED.
$
GRID    11
GRID    12              .1
GRID    13              .2
GRID    14              .3
GRID    15                      .1
GRID    16              .1      .1
GRID    17              .2      .1
GRID    18              .3      .1
GRID    21
GRID    22              .1
GRID    23              .2
GRID    24              .3
GRID    25                      .1
GRID    26              .1      .1
GRID    27              .2      .1
GRID    28              .3      .1
CHBDYG  1200            AREA4   10              2001                    +
+       11      12      16      15
CONV    1200    2001                    1       2       6       5
CHBDYG  1300            AREA4   10              2001                    +
+       12      13      17      16
CONV    1300    2001                    2       3       7       6
CHBDYG  1400            AREA4   10              2001                    +
+       13      14      18      17
CONV    1400    2001                    3       4       8       7
CHBDYG  2500            AREA4   10              2001                    +
+       25      26      22      21
CONV    2500    2001                    5       6       2       1
CHBDYG  2600            AREA4   10              2001                    +
+       26      27      23      22
CONV    2600    2001                    6       7       3       2
CHBDYG  2700            AREA4   10              2001                    +
+       27      28      24      23
CONV    2700    2001                    7       8       4       3
$
$       DEFINE THE EMISSIVITY AND CONVECTIVE COEFFICIENT
$
PCONV   2001    2002
RADM    2001            .9
MAT4    2002                            1.
$
$       ASK VIEW TO GENERATE THE RADLST(AND RADMTX CARDS)
$
$       THIS IS REQUIRED TO FORCE RADIATIVE LOSSES TO COME FROM
$       THE OUTSIDE OF THE MULTILAYER INSULATION
$
VIEW    10      1       NONE    3       3
$
$*******
$       END OF BULK DATA DECK
$
ENDDATA
