**
**
**
** file created by  A N S A  Wed Sep 01 13:13:01 2010
**
** output from :
**
** Z:/b16/do_not_delete/Subcycling/4.2.5/Job-1.inp
**
*HEADING

**
**
**
*PREPRINT, CONTACT=NO, ECHO=NO, HISTORY=NO, MODEL=NO
*PHYSICAL CONSTANTS, ABSOLUTE ZERO=0., STEFAN BOLTZMANN=0.
*NODE
       1,               0.,              -1.,              -1.
       2,           0.3125,              -1.,              -1.
       3,            0.625,              -1.,              -1.
       4,           0.9375,              -1.,              -1.
       5,             1.25,              -1.,              -1.
       6,           1.5625,              -1.,              -1.
       7,            1.875,              -1.,              -1.
       8,           2.1875,              -1.,              -1.
       9,              2.5,              -1.,              -1.
      11,            3.125,              -1.,              -1.
      12,           3.4375,              -1.,              -1.
      13,             3.75,              -1.,              -1.
      14,           4.0625,              -1.,              -1.
      15,            4.375,              -1.,              -1.
      16,           4.6875,              -1.,              -1.
      17,               5.,              -1.,              -1.
      18,           5.3125,              -1.,              -1.
      19,            5.625,              -1.,              -1.
      20,           5.9375,              -1.,              -1.
      21,             6.25,              -1.,              -1.
** ... 978 like lines cut
**
** MEMBRANE and STRUCTURAL ELEMENTS
**
*ELEMENT, TYPE=S4RS, ELSET=PART-1-1_EALL
       1,        1,      885,      890,      884
       2,        2,      893,      898,      892
       3,        3,      934,      939,      900
       4,        4,      154,      947,      941
       5,      901,      902,       37,       38
       6,      902,      903,       40,       37
       7,        7,      160,      971,      159
       8,        8,      388,      981,      973
       9,      148,        2,      892,      886
      10,       76,       11,      111,      110
      11,       11,       12,      112,      111
      12,       12,       13,      113,      112
      13,       13,       14,      114,      113
      14,       14,       15,      115,      114
      15,       15,       16,      116,      115
      16,       16,       17,      117,      116
      17,       17,       18,      118,      117
      18,       18,       19,      119,      118
      19,       19,       20,      120,      119
      20,       20,       21,      121,      120
** ... 869 like lines cut
**
** 
**
**
** SECTION DATA
**
*SHELL SECTION, ELSET=PART-1-1_EALL, MATERIAL=A1, SECTION INTEGRATION=SIMPSON
             0.1,        5
**
** AMPLITUDES
**
*AMPLITUDE, NAME=RAMP, DEFINITION=TABULAR, SMOOTH=0., VALUE=RELATIVE, TIME=STEP TIME
              0.,               0.,             0.25,               1.
**
** MATERIALS
**
**
**A1
**
*MATERIAL, NAME=A1
*DENSITY
           7800.,
*ELASTIC, TYPE=ISOTROPIC
          2.1E11,              0.3
**
** 
**
** 
** SETS
** 
*NSET, NSET=PART-1-1_ALL
       1,        2,        3,        4,        5,        6,        7,        8,        9,       11,
      12,       13,       14,       15,       16,       17,       18,       19,       20,       21,
      22,       23,       24,       25,       26,       27,       28,       29,       30,       31,
      32,       33,       34,       37,       38,       40,       42,       44,       46,       48,
      50,       59,       61,       63,       65,       67,       69,       71,       73,       75,
      76,       78,       79,       81,       82,       83,       84,       85,       86,       87,
      88,       89,       90,       91,       92,       93,       94,       95,       96,       97,
      99,      101,      102,      103,      104,      105,      106,      107,      108,      109,
     110,      111,      112,      113,      114,      115,      116,      117,      118,      119,
     120,      121,      122,      123,      124,      125,      126,      127,      128,      129,
     130,      131,      132,      133,      134,      136,      137,      140,      142,      143,
     145,      147,      148,      150,      151,      152,      154,      156,      157,      158,
     159,      160,      162,      175,      187,      189,      201,      202,      203,      204,
     205,      206,      207,      208,      209,      210,      211,      212,      213,      214,
     215,      216,      217,      218,      219,      220,      221,      222,      223,      224,
     225,      226,      227,      228,      229,      230,      231,      232,      233,      234,
     237,      240,      243,      249,      252,      301,      302,      303,      304,      305,
     306,      307,      308,      309,      310,      311,      312,      313,      314,      315,
     316,      317,      318,      319,      320,      321,      322,      323,      324,      325,
     326,      327,      328,      329,      330,      331,      332,      333,      388,      391,
** ... 80 like lines cut
*NSET, NSET=PART-1-1_FIX
       1,      101,      175,      189,      201,      301,      401,      501,      801,      884,
     901,      990,     1001,     1101,     1201,     1288,     1301,     1401,     1501,     1807,
    1810,     1891,     1896,     1925,     1942,     1947
*NSET, NSET=PART-1-1_FREE
      33,      133,      233,      333,      433,      533,      633,      733,      833,      933,
    1033,     1133,     1233,     1333,     1433,     1533
*NSET, NSET=PART-1-1_QA_TEST
PART-1-1_FREE,
      33,      133,      233,      333,      433,      533,      633,      733,      833,      933,
    1033,     1133,     1233,     1333,     1433,     1533
*ELSET, ELSET=PART-1-1_EALL
       1,        2,        3,        4,        5,        6,        7,        8,        9,       10,
      11,       12,       13,       14,       15,       16,       17,       18,       19,       20,
      21,       22,       23,       24,       25,       26,       27,       28,       29,       30,
      31,       32,       33,       34,       35,       36,       37,       38,       39,       40,
      41,       42,       43,       44,       45,       46,       47,       48,       49,       50,
      51,       52,       53,       54,       55,       56,       57,       58,       59,       60,
      61,       62,       63,       64,       65,       66,       67,       68,       69,       70,
      71,       72,       73,       74,       75,       76,       77,       78,       79,       81,
      82,       83,       85,       86,       89,       93,       95,       99,      110,      111,
     112,      113,      114,      115,      116,      117,      118,      119,      120,      121,
     122,      123,      124,      125,      126,      127,      128,      129,      130,      131,
     132,      140,      142,      144,      146,      148,      152,      156,      158,      172,
     174,      176,      180,      182,      184,      188,      190,      193,      194,      197,
     209,      210,      211,      212,      213,      214,      215,      216,      217,      218,
     219,      220,      221,      222,      223,      224,      225,      226,      227,      228,
     229,      230,      231,      232,      235,      237,      239,      240,      241,      243,
     244,      247,      251,      253,      269,      277,      285,      289,      309,      310,
     311,      312,      313,      314,      315,      316,      317,      318,      319,      320,
     321,      322,      323,      324,      325,      326,      327,      328,      329,      330,
     331,      332,      348,      352,      355,      364,      368,      372,      380,      384,
** ... 69 like lines cut
*ELSET, ELSET=PART-1-1_HIST
       1,        9,       34,       35,       71,       83
*ELSET, ELSET=PART-1-1_PRINT
       8,       60,      535,      539,      540,      543
*ELSET, ELSET=SUBCYCLINGZONE
       1,        2,        3,        4,        7,        8,        9,       34,       35,       36,
      38,       40,       42,       44,       48,       50,       52,       54,       56,       60,
      66,       70,       71,       74,       77,       81,       82,       83,       85,       86,
      89,       93,       99,      140,      144,      146,      148,      152,      156,      172,
     176,      180,      182,      184,      188,      193,      194,      197,      209,      235,
     239,      240,      241,      243,      244,      247,      251,      253,      269,      277,
     285,      289,      309,      348,      352,      355,      364,      368,      372,      380,
     384,      389,      396,      443,      447,      450,      451,      459,      466,      475,
     476,      479,      483,      484,      487,      488,      489,      491,      492,      493,
     495,      496,      499,      500,      503,      504,      507,      534,      535,      538,
     539,      540,      542,      543,      546,      550,      554,      556,      557,      558,
     559,      560,      561,      562,      566,      570,      572,      573,      574,      575,
     576,      577,      578,      582,      586,      588,      589,      590,      591,      592,
     593,      594,      598,      634,      635,      636,      637,      638,      639,      640,
     642,      646,      650,      651,      652,      653,      654,      657,      658,      662,
     666,      667,      668,      669,      670,      673,      674,      678,      682,      683,
     684,      685,      686,      687,      688,      690,      694,      698,      699,      700,
     733,      734,      735,      736,      738,      740,      741,      742,      745,      746,
     749,      750,      752,      753,      754,      756,      757,      758,      761,      762,
     765,      766,      768,      769,      770,      772,      773,      774,      777,      778,
** ... 28 like lines cut
*NSET, NSET=TIE_TOP_HR
      37,       38,       40,       42,       44,       46,       48,       50,      137
*NSET, NSET=TIE_TOP_VR
     137,      140,      143,      145,      147,      151
*NSET, NSET=TIE_BOT_HR
      59,       61,       63,       65,       67,       69,       71,       73,      136
*NSET, NSET=TIE_BOT_VR
      75,       79,       81,       99,      134,      136
*NSET, NSET=TIE_TOP_HR_FINE
    1001,     1002,     1003,     1004,     1005,     1006,     1007,     1008,     1009,     1827,
    1838,     1844,     1846,     1856,     1857,     1868,     1869,     1965,     1981,     1988,
    2003,     2009,     2020,     2030,     2041
*NSET, NSET=TIE_TOP_VR_FINE
    1009,     1109,     1209,     1309,     1409,     1509,     1877,     1908,     1909,     1934,
    1959,
*NSET, NSET=TIE_BOT_VR_FINE
       9,      109,      209,      309,      393,      397,      409,      509,      979,     1078,
    1390,
*NSET, NSET=TIE_BOT_HR_FINE
      34,      237,      240,      243,      249,      252,      501,      502,      503,      504,
     505,      506,      507,      508,      509,     1289,     1342,     1348,     1352,     1358,
    1368,     1378,     1382,     1389,     1394
**
** SURFACE DEFINITIONS
*SURFACE, NAME=TOP_HR, TYPE=NODE
TIE_TOP_HR,
**
*SURFACE, NAME=TOP_VR, TYPE=NODE
TIE_TOP_VR,
**
*SURFACE, NAME=BOT_HR, TYPE=NODE
TIE_BOT_HR,
**
*SURFACE, NAME=BOT_VR, TYPE=NODE
TIE_BOT_VR,
**
*SURFACE, NAME=TOP_HR_FINE, TYPE=NODE
TIE_TOP_HR_FINE,
**
*SURFACE, NAME=TOP_VR_FINE, TYPE=NODE
TIE_TOP_VR_FINE,
**
*SURFACE, NAME=BOT_HR_FINE, TYPE=NODE
TIE_BOT_HR_FINE,
**
*SURFACE, NAME=BOT_VR_FINE, TYPE=NODE
TIE_BOT_VR_FINE,
**
**TIE
*TIE, NAME=TH, POSITION TOLERANCE=0.2, ADJUST=NO
TOP_HR_FINE, TOP_HR
**
*TIE, NAME=TV, POSITION TOLERANCE=0.2, ADJUST=NO
TOP_VR_FINE, TOP_VR
**
*TIE, NAME=BH, POSITION TOLERANCE=0.2, ADJUST=NO
BOT_HR_FINE, BOT_HR
**
*TIE, NAME=BV, POSITION TOLERANCE=0.2, ADJUST=NO
BOT_VR_FINE, BOT_VR
**
** BOUNDARY
**
*BOUNDARY, TYPE=DISPLACEMENT
PART-1-1_FIX,        1,        6,               0.
**
*SUBCYCLING, ELSET=SUBCYCLINGZONE
** STEPS
**
**
** STEP 1
**
*STEP, NAME=Anonymous STEP 1
*DYNAMIC, EXPLICIT
,             0.25
**
** CLOAD
**
*CLOAD, AMPLITUDE=RAMP
      33,        3,          -60000.
     133,        3,         -120000.
     233,        3,         -120000.
     333,        3,         -120000.
     433,        3,         -120000.
     533,        3,          -60000.
    1033,        3,           60000.
    1133,        3,          120000.
    1233,        3,          120000.
    1333,        3,          120000.
    1433,        3,          120000.
    1533,        3,           60000.
*OUTPUT, FIELD, NUMBER INTERVAL=5, VARIABLE=PRESELECT
*OUTPUT, FIELD, TIME MARKS=YES, NUMBER INTERVAL=4
*NODE OUTPUT, NSET=PART-1-1_QA_TEST
U,
*OUTPUT, HISTORY, TIME INTERVAL=0.025, VARIABLE=PRESELECT
*FILE OUTPUT, TIME MARKS=YES, NUMBER INTERVAL=4
*NODE FILE, NSET=PART-1-1_QA_TEST
U,
*ENERGY FILE
*END STEP
