*HEADING
le2_s3rs_f: NAFEMS TEST LE2, Cylindrical Shell Bending Patch Test  [S3RS]
*PREPRINT,ECHO=YES,HISTORY=NO,MODEL=NO
*NODE
 1,    1.,  10.,  0.0,   1.,  0.,  0.
 5,    1.,  10.,  0.5,   1.,  0.,  0.
 9,    1.,   0.,  0.5,   1.,  0.,  0.
 13,   1.,   0.,  0.0,   1.,  0.,  0.
 17,   1.,  10.,  0.0,   1.,  0.,  0.
 101,  1.,  6.66667,  0.3,   1.,  0.,  0.
*NGEN,NSET=EDGECD
 1,5
*NGEN,NSET=EDGEBC
 5,9
*NGEN,NSET=EDGEAB
 9,13
*NGEN,NSET=EDGEAD1
 13,17
*NSET,NSET=EDGEAD
 1,13,14,15,16
*NSET,NSET=OUTER
 EDGECD,EDGEBC,EDGEAB,EDGEAD
*NGEN,NSET=INNER
 1,101,50
 3,101,49
 5,101,48
 7,101,47
 9,101,46
 11,101,45
 13,101,44
 15,101,43
*NSET,NSET=ALL
 INNER,OUTER
*NMAP,NSET=ALL,TYPE=CYLINDRICAL
0.,0.,0.,0.,0.,1.
1.,0.,0.
*ELEMENT,TYPE=S3RS,ELSET=ALLELS
1,  1,3,101
1001,  1,101,15
2,  3,5,7
1002,  3,7,101
3,  101,7,9
1003,  101,9,11
4,  15,101,11
1004,  15,11,13
*ELSET,ELSET=HIST
1002, 
*MATERIAL,NAME=MAT
*ELASTIC,TYPE=ISOTROPIC
210.E9,0.3
*DENSITY
7800., 
*ORIENTATION, NAME=ORI, SYSTEM=CYLINDRICAL
 0.,0.,0., 0.,0.,1.
 1,0.
*SHELL SECTION, MATERIAL=MAT, ELSET=ALLELS, ORIENTATION=ORI
0.01, 
*TRANSFORM,TYPE=C,NSET=ALL
0.,0.,0.,0.,0.,1.
*AMPLITUDE,NAME=RAMP
0.0,0.0,.25,1.0
*BOUNDARY
EDGEAB,1,6
EDGEAD,ZSYMM
EDGEBC,ZSYMM
*RESTART,TIMEMARKS=NO,WRITE,NUM=10
*STEP
*DYNAMIC,EXPLICIT
,.25
*CLOAD,AMP=RAMP
 1,6,0.125E3
 3,6,0.25E3
 5,6,0.125E3
***OUTPUT,HISTORY,TIME INTERVAL=.005
***ELEMENT OUTPUT,ELSET=HIST,SECTIONPOINT=5
**S,
*OUTPUT,FIELD,VAR=PRESELECT,NUMBER INTERVAL=5
**
** Output requests for qa testing
**
*NSET, NSET=QA_TEST
3, 7, 11, 15, 101 
*OUTPUT,FIELD,NUMBER INTERVAL=1
*NODE OUTPUT, NSET=QA_TEST
U,
*OUTPUT,HISTORY,VAR=PRESELECT,TIME INTERVAL=0.025
*FILE OUTPUT,NUM=1
*NODE FILE, NSET=QA_TEST
U, 
*ENERGY FILE
*END STEP
