*HEADING
 NAFEMS TEST LE2, Cylindrical Shell Bending Patch Test  [SC8R]
*NODE
   1, 0.995,  0.0, 0.0, 1.0, 0.0, 0.0
   5, 0.995, 30.0, 0.0, 1.0, 0.0, 0.0
  21, 0.995,  0.0, 0.5, 1.0, 0.0, 0.0
  25, 0.995, 30.0, 0.5, 1.0, 0.0, 0.0
  13, 0.995, 20.0, 0.3, 1.0, 0.0, 0.0
 101, 1.005,  0.0, 0.0, 1.0, 0.0, 0.0
 105, 1.005, 30.0, 0.0, 1.0, 0.0, 0.0
 121, 1.005,  0.0, 0.5, 1.0, 0.0, 0.0
 125, 1.005, 30.0, 0.5, 1.0, 0.0, 0.0
 113, 1.005, 20.0, 0.3, 1.0, 0.0, 0.0
*NGEN,NSET=EDGEAB
 1,21,5
 101,121,5
*NGEN,NSET=EDGECD
 5,25,5
 105,125,5
*NGEN,NSET=EDGEAD
 1,5
 101,105
*NGEN,NSET=EDGEBC
 21,25,
 121,125,
*NGEN
 11,13
 13,15
 3,13,5
 13,23,5
 6,8
 8,10
 16,18
 18,20
 111,113
 113,115
 103,113,5
 113,123,5
 106,108
 108,110
 116,118
 118,120
*NSET,NSET=NALL,GEN
 1,25
 101,125
*NMAP,NSET=NALL,TYPE=CYLINDRICAL
0.,0.,0.,0.,0.,1.
1.,0.,0.
*ELEMENT,TYPE=SC8R,ELSET=ALLELS
 1,1,3,13,11, 101, 103, 113, 111
*ELGEN,ELSET=ALLELS
 1,2,2,1,2,10,10
*MATERIAL,NAME=MAT
*ELASTIC,TYPE=ISOTROPIC
2.1E5,0.3
*orientation, name=ori, system=cylindrical
 0.,0.,0., 0.,0.,1.
 1,0.
*SHELL SECTION,MATERIAL=MAT, ELSET=ALLELS, orientation=ori
0.01, 
*TRANSFORM,TYPE=C,NSET=NALL
0.,0.,0.,0.,0.,1.
*BOUNDARY
 EDGEAD,ZSYMM
 EDGEBC,ZSYMM
 EDGEAB,1,3
*RESTART,WRITE
*STEP
*STATIC
*CLOAD
  5,2,-12500.0
 15,2,-25000.0,
 25,2,-12500.0
105,2,+12500.0
115,2,+25000.0,
125,2,+12500.0
*OUTPUT, FIELD
*ELEMENT OUTPUT
 S,
*OUTPUT, FIELD
*ELEMENT OUTPUT, POSITION=NODES
 S,
*END STEP
